Circuit: * C:\Users\cwnou\OneDrive\Documents\Projects\wavefolder\analog\cascaded_wavefolder.asc

Direct Newton iteration for .op point succeeded.
Ignoring empty pin current: Ix(u1:1)
Ignoring empty pin current: Ix(u1:2)
Ignoring empty pin current: Ix(u2:1)
Ignoring empty pin current: Ix(u2:2)
Ignoring empty pin current: Ix(u3:1)
Ignoring empty pin current: Ix(u3:2)
Ignoring empty pin current: Ix(u1:1)
Ignoring empty pin current: Ix(u1:2)
Ignoring empty pin current: Ix(u2:1)
Ignoring empty pin current: Ix(u2:2)
Ignoring empty pin current: Ix(u3:1)
Ignoring empty pin current: Ix(u3:2)

Date: Mon Jul 25 10:32:55 2022
Total elapsed time: 0.158 seconds.

tnom = 27
temp = 27
method = modified trap
totiter = 9337
traniter = 9332
tranpoints = 3270
accept = 2528
rejected = 742
matrix size = 32
fillins = 8
solver = Normal
Matrix Compiler1: 1.53 KB object code size  0.3/0.2/[0.1]
Matrix Compiler2: 2.32 KB object code size  0.2/0.3/[0.2]

