Circuit: * C:\Users\noursec\Documents\personal projects\wavefolder\analog_wavefolder\simulation\cascaded_wavefolder.asc

Early termination of direct N-R iteration.
Direct Newton iteration failed to find .op point.  (Use ".option noopiter" to skip.)
Starting Gmin stepping
Gmin = 10
vernier = 0.5
vernier = 0.25
vernier = 0.125
Gmin = 5.5165
vernier = 0.0625
vernier = 0.03125
vernier = 0.015625
vernier = 0.0078125
Gmin = 5.49501
vernier = 0.00390625
vernier = 0.00195313
vernier = 0.000976563
vernier = 0.000488281
Gmin = 5.50104
Gmin = 0
Gmin stepping failed

Starting source stepping with srcstepmethod=0
Source Step = 3.0303%
Source Step = 33.3333%
Source Step = 63.6364%
Source Step = 93.9394%
Source stepping succeeded in finding the operating point.


Date: Thu Jul 28 10:10:20 2022
Total elapsed time: 16.233 seconds.

tnom = 27
temp = 27
method = modified trap
totiter = 9871
traniter = 8230
tranpoints = 2955
accept = 2285
rejected = 670
matrix size = 246
fillins = 4179
solver = Normal
Thread vector: 38.9/16.4[5] 32.7/9.6[5] 50.0/16.9[5] 6.0/17.5[1]  2592/500
Matrix Compiler1: 1021.87 KB object code size  506.6/390.7/[266.5]
Matrix Compiler2: 89.57 KB object code size  85.7/66.3/[20.7]

