Circuit: * C:\Users\noursec\Documents\personal projects\wavefolder\analog_wavefolder\simulation\Draft1.asc

Early termination of direct N-R iteration.
Direct Newton iteration failed to find .op point.  (Use ".option noopiter" to skip.)
Starting Gmin stepping
Gmin = 10
Gmin = 1.07374
Gmin = 0.115292
Gmin = 0.0123794
Gmin = 0.00132923
Gmin = 0.000142725
Gmin = 1.5325e-005
Gmin = 1.6455e-006
Gmin = 1.76685e-007
Gmin = 1.89714e-008
Gmin = 2.03704e-009
Gmin = 2.18725e-010
Gmin = 2.34854e-011
Gmin = 2.52173e-012
Gmin = 2.70769e-013
Gmin = 0
Gmin stepping succeeded in finding the operating point.

Heightened Def Con from 0.000614691 to 0.000614692
Heightened Def Con from 0.000614692 to 0.000614693
Heightened Def Con from 0.000614693 to 0.000614694
Heightened Def Con from 0.000614694 to 0.000614695
Heightened Def Con from 0.000614695 to 0.000614696
Heightened Def Con from 0.000614696 to 0.000614697
Heightened Def Con from 0.000614697 to 0.000614698
Heightened Def Con from 0.000614698 to 0.000614699
Heightened Def Con from 0.000614699 to 0.0006147
Heightened Def Con from 0.0006147 to 0.000614701
Heightened Def Con from 0.000614701 to 0.000614702
Heightened Def Con from 0.000614702 to 0.000614703
Heightened Def Con from 0.000614703 to 0.000614704
Heightened Def Con from 0.000614704 to 0.000614705
Heightened Def Con from 0.000614705 to 0.000614706
Heightened Def Con from 0.000614706 to 0.000614707
Heightened Def Con from 0.000614707 to 0.000614708
Heightened Def Con from 0.000614708 to 0.000614709
Heightened Def Con from 0.000614709 to 0.00061471
Heightened Def Con from 0.00061471 to 0.000614711
Heightened Def Con from 0.000614711 to 0.000614712
Heightened Def Con from 0.000614712 to 0.000614713
Heightened Def Con from 0.000614713 to 0.000614714
Heightened Def Con from 0.000614714 to 0.000614715
Heightened Def Con from 0.000614715 to 0.000614716
Heightened Def Con from 0.000614716 to 0.000614717
Heightened Def Con from 0.000614717 to 0.000614718
Heightened Def Con from 0.000614718 to 0.000614719
Heightened Def Con from 0.000614719 to 0.00061472
Heightened Def Con from 0.00061472 to 0.000614721
Heightened Def Con from 0.000614721 to 0.000614722
Heightened Def Con from 0.000614722 to 0.000614723
Heightened Def Con from 0.000614723 to 0.000614724
Heightened Def Con from 0.000614724 to 0.000614725
Heightened Def Con from 0.000614725 to 0.000614726
Heightened Def Con from 0.000614726 to 0.000614727
Heightened Def Con from 0.000614727 to 0.000614728
Heightened Def Con from 0.000614728 to 0.000614729
Heightened Def Con from 0.000614729 to 0.00061473
Heightened Def Con from 0.00061473 to 0.000614731
Heightened Def Con from 0.000614731 to 0.000614732
Heightened Def Con from 0.000614732 to 0.000614733
Heightened Def Con from 0.000614733 to 0.000614734
Heightened Def Con from 0.000614734 to 0.000614735
Heightened Def Con from 0.000614735 to 0.000614736
Heightened Def Con from 0.000614736 to 0.000614737
Heightened Def Con from 0.000614737 to 0.000614738
Heightened Def Con from 0.000614738 to 0.000614739
Heightened Def Con from 0.000614739 to 0.00061474
Heightened Def Con from 0.00061474 to 0.000614741
Heightened Def Con from 0.000614741 to 0.000614742
Heightened Def Con from 0.000614742 to 0.000614743
Heightened Def Con from 0.000614743 to 0.000614744
Heightened Def Con from 0.000614744 to 0.000614745
Heightened Def Con from 0.000614745 to 0.000614746
Heightened Def Con from 0.000614746 to 0.000614747
Heightened Def Con from 0.000614747 to 0.000614748
Heightened Def Con from 0.000614748 to 0.000614749
Heightened Def Con from 0.000614749 to 0.00061475
Heightened Def Con from 0.00061475 to 0.000614751
Heightened Def Con from 0.000614751 to 0.000614752
Heightened Def Con from 0.000614752 to 0.000614753
Heightened Def Con from 0.000614753 to 0.000614754
Heightened Def Con from 0.000614754 to 0.000614755
Heightened Def Con from 0.000614755 to 0.000614756
Heightened Def Con from 0.000614756 to 0.000614757
Heightened Def Con from 0.000614757 to 0.000614758
Heightened Def Con from 0.000614758 to 0.000614759
Heightened Def Con from 0.000614759 to 0.00061476
Heightened Def Con from 0.00061476 to 0.000614761
Heightened Def Con from 0.000614761 to 0.000614762
Heightened Def Con from 0.000614762 to 0.000614763
Heightened Def Con from 0.000614763 to 0.000614764
Heightened Def Con from 0.000614764 to 0.000614765
Heightened Def Con from 0.000614765 to 0.000614766
Heightened Def Con from 0.000614766 to 0.000614767
Heightened Def Con from 0.000614767 to 0.000614768
Heightened Def Con from 0.000614768 to 0.000614769
Heightened Def Con from 0.000614769 to 0.00061477
Heightened Def Con from 0.00061477 to 0.000614771
Heightened Def Con from 0.000614771 to 0.000614772
Heightened Def Con from 0.000614772 to 0.000614773
Heightened Def Con from 0.000614773 to 0.000614774
Heightened Def Con from 0.000614774 to 0.000614775
Heightened Def Con from 0.000614775 to 0.000614776
Heightened Def Con from 0.000614776 to 0.000614777
Heightened Def Con from 0.000614777 to 0.000614778
Heightened Def Con from 0.000614778 to 0.000614779
Heightened Def Con from 0.000614779 to 0.00061478
Heightened Def Con from 0.00061478 to 0.000614781
Heightened Def Con from 0.000614781 to 0.000614782
Heightened Def Con from 0.000614782 to 0.000614783
Heightened Def Con from 0.000614783 to 0.000614784
Heightened Def Con from 0.000614784 to 0.000614785
Heightened Def Con from 0.000614785 to 0.000614786
Heightened Def Con from 0.000614786 to 0.000614787
Heightened Def Con from 0.000614787 to 0.000614788
Heightened Def Con from 0.000614788 to 0.000614789
Heightened Def Con from 0.000614789 to 0.00061479
Heightened Def Con from 0.00061479 to 0.000614791
Heightened Def Con from 0.000614791 to 0.000614792
Heightened Def Con from 0.000614792 to 0.000614793
Heightened Def Con from 0.000614793 to 0.000614794
Heightened Def Con from 0.000614794 to 0.000614795
Heightened Def Con from 0.000614795 to 0.000614796
Heightened Def Con from 0.000614796 to 0.000614797
Heightened Def Con from 0.000614797 to 0.000614798
Heightened Def Con from 0.000614798 to 0.000614799
Heightened Def Con from 0.000614799 to 0.0006148
Heightened Def Con from 0.0006148 to 0.000614801
Heightened Def Con from 0.000614801 to 0.000614802
Heightened Def Con from 0.000614802 to 0.000614803
Heightened Def Con from 0.000614803 to 0.000614804
Heightened Def Con from 0.000614804 to 0.000614805
Heightened Def Con from 0.000614805 to 0.000614806
Heightened Def Con from 0.000614806 to 0.000614807
Heightened Def Con from 0.000614807 to 0.000614808
Heightened Def Con from 0.000614808 to 0.000614809
Heightened Def Con from 0.000614809 to 0.00061481
Heightened Def Con from 0.00061481 to 0.000614811
Heightened Def Con from 0.000614811 to 0.000614812
Heightened Def Con from 0.000614812 to 0.000614813
Heightened Def Con from 0.000614813 to 0.000614814
Heightened Def Con from 0.000614814 to 0.000614815
Heightened Def Con from 0.000614815 to 0.000614816
Heightened Def Con from 0.000614816 to 0.000614817
Heightened Def Con from 0.000614817 to 0.000614818
Heightened Def Con from 0.000614818 to 0.000614819
Heightened Def Con from 0.000614819 to 0.00061482
Heightened Def Con from 0.00061482 to 0.000614821
Heightened Def Con from 0.000614821 to 0.000614822
Heightened Def Con from 0.000614822 to 0.000614823
Heightened Def Con from 0.000614823 to 0.000614824
Heightened Def Con from 0.000614824 to 0.000614825
Heightened Def Con from 0.000614825 to 0.000614826
Heightened Def Con from 0.000614826 to 0.000614827
Heightened Def Con from 0.000614827 to 0.000614828
Heightened Def Con from 0.000614828 to 0.000614829
Heightened Def Con from 0.000614829 to 0.00061483
Heightened Def Con from 0.00061483 to 0.000614831
Heightened Def Con from 0.000614831 to 0.000614832
Heightened Def Con from 0.000614832 to 0.000614833
Heightened Def Con from 0.000614833 to 0.000614834
Heightened Def Con from 0.000614834 to 0.000614835
Heightened Def Con from 0.000614835 to 0.000614836
Heightened Def Con from 0.000614836 to 0.000614837
Heightened Def Con from 0.000614837 to 0.000614838
Heightened Def Con from 0.000614838 to 0.000614839
Heightened Def Con from 0.000614839 to 0.00061484
Heightened Def Con from 0.00061484 to 0.000614841
Heightened Def Con from 0.000614841 to 0.000614842
Heightened Def Con from 0.000614842 to 0.000614843
Heightened Def Con from 0.000614843 to 0.000614844
Heightened Def Con from 0.000614844 to 0.000614845
Heightened Def Con from 0.000614845 to 0.000614846
Heightened Def Con from 0.000614846 to 0.000614847
Heightened Def Con from 0.000614847 to 0.000614848
Heightened Def Con from 0.000614848 to 0.000614849
Heightened Def Con from 0.000614849 to 0.00061485
Heightened Def Con from 0.00061485 to 0.000614851
Heightened Def Con from 0.000614851 to 0.000614852
Heightened Def Con from 0.000614852 to 0.000614853
Heightened Def Con from 0.000614853 to 0.000614854
Heightened Def Con from 0.000614854 to 0.000614855
Heightened Def Con from 0.000614855 to 0.000614856
Heightened Def Con from 0.000614856 to 0.000614857
Heightened Def Con from 0.000614857 to 0.000614858
Heightened Def Con from 0.000614858 to 0.000614859
Heightened Def Con from 0.000614859 to 0.00061486
Heightened Def Con from 0.00061486 to 0.000614861
Heightened Def Con from 0.000614861 to 0.000614862
Heightened Def Con from 0.000614862 to 0.000614863
Heightened Def Con from 0.000614863 to 0.000614864
Heightened Def Con from 0.000614864 to 0.000614865
Heightened Def Con from 0.000614865 to 0.000614866
Heightened Def Con from 0.000614866 to 0.000614867
Heightened Def Con from 0.000614867 to 0.000614868
Heightened Def Con from 0.000614868 to 0.000614869
Heightened Def Con from 0.000614869 to 0.00061487
Heightened Def Con from 0.00061487 to 0.000614871
Heightened Def Con from 0.000614871 to 0.000614872
Heightened Def Con from 0.000614872 to 0.000614873
Heightened Def Con from 0.000614873 to 0.000614874
Heightened Def Con from 0.000614874 to 0.000614875
Heightened Def Con from 0.000614875 to 0.000614876
Heightened Def Con from 0.000614876 to 0.000614877
Heightened Def Con from 0.000614877 to 0.000614878
Heightened Def Con from 0.000614878 to 0.000614879
Heightened Def Con from 0.000614879 to 0.00061488
Heightened Def Con from 0.00061488 to 0.000614881
Heightened Def Con from 0.000614881 to 0.000614882
Heightened Def Con from 0.000614882 to 0.000614883
Heightened Def Con from 0.000614883 to 0.000614884
Heightened Def Con from 0.000614884 to 0.000614885
Heightened Def Con from 0.000614885 to 0.000614886
Heightened Def Con from 0.000614886 to 0.000614887
Heightened Def Con from 0.000614887 to 0.000614888
Heightened Def Con from 0.000614888 to 0.000614889
Heightened Def Con from 0.000614889 to 0.00061489
Heightened Def Con from 0.00061489 to 0.000614891
Heightened Def Con from 0.000614891 to 0.000614892
Heightened Def Con from 0.000614892 to 0.000614893
Heightened Def Con from 0.000614893 to 0.000614894
Heightened Def Con from 0.000614894 to 0.000614895
Heightened Def Con from 0.000614895 to 0.000614896
Heightened Def Con from 0.000614896 to 0.000614897
Heightened Def Con from 0.000614897 to 0.000614898
Heightened Def Con from 0.000614898 to 0.000614899
Heightened Def Con from 0.000614899 to 0.0006149
Heightened Def Con from 0.0006149 to 0.000614901
Heightened Def Con from 0.000614901 to 0.000614902
Heightened Def Con from 0.000614902 to 0.000614903
Heightened Def Con from 0.000614903 to 0.000614904
Heightened Def Con from 0.000614904 to 0.000614905
Heightened Def Con from 0.000614905 to 0.000614906
Heightened Def Con from 0.000614906 to 0.000614907
Heightened Def Con from 0.000614907 to 0.000614908
Heightened Def Con from 0.000614908 to 0.000614909
Heightened Def Con from 0.000614909 to 0.00061491
Heightened Def Con from 0.00061491 to 0.000614911
Heightened Def Con from 0.000614911 to 0.000614912
Heightened Def Con from 0.000614912 to 0.000614913
Heightened Def Con from 0.000614913 to 0.000614914
Heightened Def Con from 0.000614914 to 0.000614915
Heightened Def Con from 0.000614915 to 0.000614916
Heightened Def Con from 0.000614916 to 0.000614917
Heightened Def Con from 0.000614917 to 0.000614918
Heightened Def Con from 0.000614918 to 0.000614919
Heightened Def Con from 0.000614919 to 0.00061492
Heightened Def Con from 0.00061492 to 0.000614921
Heightened Def Con from 0.000614921 to 0.000614922
Heightened Def Con from 0.000614922 to 0.000614923
Heightened Def Con from 0.000614923 to 0.000614924
Heightened Def Con from 0.000614924 to 0.000614925
Heightened Def Con from 0.000614925 to 0.000614926
Heightened Def Con from 0.000614926 to 0.000614927
Heightened Def Con from 0.000614927 to 0.000614928
Heightened Def Con from 0.000614928 to 0.000614929
Heightened Def Con from 0.000614929 to 0.00061493
Heightened Def Con from 0.00061493 to 0.000614931
Heightened Def Con from 0.000614931 to 0.000614932
Heightened Def Con from 0.000614932 to 0.000614933
Heightened Def Con from 0.000614933 to 0.000614934
Heightened Def Con from 0.000614934 to 0.000614935
Heightened Def Con from 0.000614935 to 0.000614936
Heightened Def Con from 0.000614936 to 0.000614937
Heightened Def Con from 0.000614937 to 0.000614938
Heightened Def Con from 0.000614938 to 0.000614939
Heightened Def Con from 0.000614939 to 0.00061494
Heightened Def Con from 0.00061494 to 0.000614941
Heightened Def Con from 0.000614941 to 0.000614942
Heightened Def Con from 0.000614942 to 0.000614943
Heightened Def Con from 0.000614943 to 0.000614944
Heightened Def Con from 0.000614944 to 0.000614945
Heightened Def Con from 0.000614945 to 0.000614946
Heightened Def Con from 0.000614946 to 0.000614947
Heightened Def Con from 0.000614947 to 0.000614948
Heightened Def Con from 0.000614948 to 0.000614949
Heightened Def Con from 0.000614949 to 0.00061495
Heightened Def Con from 0.00061495 to 0.000614951
Heightened Def Con from 0.000614951 to 0.000614952
Heightened Def Con from 0.000614952 to 0.000614953
Heightened Def Con from 0.000614953 to 0.000614954
Heightened Def Con from 0.000614954 to 0.000614955
Heightened Def Con from 0.000614955 to 0.000614956
Heightened Def Con from 0.000614956 to 0.000614957
Heightened Def Con from 0.000614957 to 0.000614958
Heightened Def Con from 0.000614958 to 0.000614959
Heightened Def Con from 0.000614959 to 0.00061496
Heightened Def Con from 0.00061496 to 0.000614961
Heightened Def Con from 0.000614961 to 0.000614962
Heightened Def Con from 0.000614962 to 0.000614963
Heightened Def Con from 0.000614963 to 0.000614964
Heightened Def Con from 0.000614964 to 0.000614965
Heightened Def Con from 0.000614965 to 0.000614966
Heightened Def Con from 0.000614966 to 0.000614967
Heightened Def Con from 0.000614967 to 0.000614968
Heightened Def Con from 0.000614968 to 0.000614969
Heightened Def Con from 0.000614969 to 0.00061497
Heightened Def Con from 0.00061497 to 0.000614971
Heightened Def Con from 0.000614971 to 0.000614972
Heightened Def Con from 0.000614972 to 0.000614973
Heightened Def Con from 0.000614973 to 0.000614974
Heightened Def Con from 0.000614974 to 0.000614975
Heightened Def Con from 0.000614975 to 0.000614976
Heightened Def Con from 0.000614976 to 0.000614977
Heightened Def Con from 0.000614977 to 0.000614978
Heightened Def Con from 0.000614978 to 0.000614979
Heightened Def Con from 0.000614979 to 0.00061498
Heightened Def Con from 0.00061498 to 0.000614981
Heightened Def Con from 0.000614981 to 0.000614982
Heightened Def Con from 0.000614982 to 0.000614983
Heightened Def Con from 0.000614983 to 0.000614984
Heightened Def Con from 0.000614984 to 0.000614985
Heightened Def Con from 0.000614985 to 0.000614986
Heightened Def Con from 0.000614986 to 0.000614987
Heightened Def Con from 0.000614987 to 0.000614988
Heightened Def Con from 0.000614988 to 0.000614989
Heightened Def Con from 0.000614989 to 0.00061499
Heightened Def Con from 0.00061499 to 0.000614991
Heightened Def Con from 0.000614991 to 0.000614992
Heightened Def Con from 0.000614992 to 0.000614993
Heightened Def Con from 0.000614993 to 0.000614994
Heightened Def Con from 0.000614994 to 0.000614995
Heightened Def Con from 0.000614995 to 0.000614996
Heightened Def Con from 0.000614996 to 0.000614997
Heightened Def Con from 0.000614997 to 0.000614998
Heightened Def Con from 0.000614998 to 0.000614999
Heightened Def Con from 0.000614999 to 0.000615
Heightened Def Con from 0.000615 to 0.000615001
Heightened Def Con from 0.000615001 to 0.000615002
Heightened Def Con from 0.000615002 to 0.000615003
Heightened Def Con from 0.000615003 to 0.000615004
Heightened Def Con from 0.000615004 to 0.000615005
Heightened Def Con from 0.000615005 to 0.000615006
Heightened Def Con from 0.000615006 to 0.000615007
Heightened Def Con from 0.000615007 to 0.000615008
Heightened Def Con from 0.000615008 to 0.000615009
Heightened Def Con from 0.000615009 to 0.00061501
Heightened Def Con from 0.00061501 to 0.000615011
Heightened Def Con from 0.000615011 to 0.000615012
Heightened Def Con from 0.000615012 to 0.000615013
Heightened Def Con from 0.000615013 to 0.000615014
Heightened Def Con from 0.000615014 to 0.000615015
Heightened Def Con from 0.000615015 to 0.000615016
Heightened Def Con from 0.000615016 to 0.000615017
Heightened Def Con from 0.000615017 to 0.000615018
Heightened Def Con from 0.000615018 to 0.000615019
Heightened Def Con from 0.000615019 to 0.00061502
Heightened Def Con from 0.00061502 to 0.000615021
Heightened Def Con from 0.000615021 to 0.000615022
Heightened Def Con from 0.000615022 to 0.000615023
Heightened Def Con from 0.000615023 to 0.000615024
Heightened Def Con from 0.000615024 to 0.000615025
Heightened Def Con from 0.000615025 to 0.000615026
Heightened Def Con from 0.000615026 to 0.000615027
Heightened Def Con from 0.000615027 to 0.000615028
Heightened Def Con from 0.000615028 to 0.000615029
Heightened Def Con from 0.000615029 to 0.00061503
Heightened Def Con from 0.00061503 to 0.000615031
Heightened Def Con from 0.000615031 to 0.000615032
Heightened Def Con from 0.000615032 to 0.000615033
Heightened Def Con from 0.000615033 to 0.000615034
Heightened Def Con from 0.000615034 to 0.000615035
Heightened Def Con from 0.000615035 to 0.000615036
Heightened Def Con from 0.000615036 to 0.000615037
Heightened Def Con from 0.000615037 to 0.000615038
Heightened Def Con from 0.000615038 to 0.000615039
Heightened Def Con from 0.000615039 to 0.00061504
Heightened Def Con from 0.00061504 to 0.000615041
Heightened Def Con from 0.000615041 to 0.000615042
Heightened Def Con from 0.000615042 to 0.000615043
Heightened Def Con from 0.000615043 to 0.000615044
Heightened Def Con from 0.000615044 to 0.000615045
Heightened Def Con from 0.000615045 to 0.000615046
Heightened Def Con from 0.000615046 to 0.000615047
Heightened Def Con from 0.000615047 to 0.000615048
Heightened Def Con from 0.000615048 to 0.000615049
Heightened Def Con from 0.000615049 to 0.00061505
Heightened Def Con from 0.00061505 to 0.000615051
Heightened Def Con from 0.000615051 to 0.000615052
Heightened Def Con from 0.000615052 to 0.000615053
Heightened Def Con from 0.000615053 to 0.000615054
Heightened Def Con from 0.000615054 to 0.000615055
Heightened Def Con from 0.000615055 to 0.000615056
Heightened Def Con from 0.000615056 to 0.000615057
Heightened Def Con from 0.000615057 to 0.000615058
Heightened Def Con from 0.000615058 to 0.000615059
Heightened Def Con from 0.000615059 to 0.00061506
Heightened Def Con from 0.00061506 to 0.000615061
Heightened Def Con from 0.000615061 to 0.000615062
Heightened Def Con from 0.000615062 to 0.000615063
Heightened Def Con from 0.000615063 to 0.000615064
Heightened Def Con from 0.000615064 to 0.000615065
Heightened Def Con from 0.000615065 to 0.000615066
Heightened Def Con from 0.000615066 to 0.000615067
Heightened Def Con from 0.000615067 to 0.000615068
Heightened Def Con from 0.000615068 to 0.000615069
Heightened Def Con from 0.000615069 to 0.00061507
Heightened Def Con from 0.00061507 to 0.000615071
Heightened Def Con from 0.000615071 to 0.000615072
Heightened Def Con from 0.000615072 to 0.000615073
Heightened Def Con from 0.000615073 to 0.000615074
Heightened Def Con from 0.000615074 to 0.000615075
Heightened Def Con from 0.000615075 to 0.000615076
Heightened Def Con from 0.000615076 to 0.000615077
Heightened Def Con from 0.000615077 to 0.000615078
Heightened Def Con from 0.000615078 to 0.000615079
Heightened Def Con from 0.000615079 to 0.00061508
Heightened Def Con from 0.00061508 to 0.000615081
Heightened Def Con from 0.000615081 to 0.000615082
Heightened Def Con from 0.000615082 to 0.000615083
Heightened Def Con from 0.000615083 to 0.000615084
Heightened Def Con from 0.000615084 to 0.000615085
Heightened Def Con from 0.000615085 to 0.000615086
Heightened Def Con from 0.000615086 to 0.000615087
Heightened Def Con from 0.000615087 to 0.000615088
Heightened Def Con from 0.000615088 to 0.000615089
Heightened Def Con from 0.000615089 to 0.00061509
Heightened Def Con from 0.00061509 to 0.000615091
Heightened Def Con from 0.000615091 to 0.000615092
Heightened Def Con from 0.000615092 to 0.000615093
Heightened Def Con from 0.000615093 to 0.000615094
Heightened Def Con from 0.000615094 to 0.000615095
Heightened Def Con from 0.000615095 to 0.000615096
Heightened Def Con from 0.000615096 to 0.000615097
Heightened Def Con from 0.000615097 to 0.000615098
Heightened Def Con from 0.000615098 to 0.000615099
Heightened Def Con from 0.000615099 to 0.0006151
Heightened Def Con from 0.0006151 to 0.000615101
Heightened Def Con from 0.000615101 to 0.000615102
Heightened Def Con from 0.000615102 to 0.000615103
Heightened Def Con from 0.000615103 to 0.000615104
Heightened Def Con from 0.000615104 to 0.000615105
Heightened Def Con from 0.000615105 to 0.000615106
Heightened Def Con from 0.000615106 to 0.000615107
Heightened Def Con from 0.000615107 to 0.000615108
Heightened Def Con from 0.000615108 to 0.000615109
Heightened Def Con from 0.000615109 to 0.00061511
Heightened Def Con from 0.00061511 to 0.000615111
Heightened Def Con from 0.000615111 to 0.000615112
Heightened Def Con from 0.000615112 to 0.000615113
Heightened Def Con from 0.000615113 to 0.000615114
Heightened Def Con from 0.000615114 to 0.000615115
Heightened Def Con from 0.000615115 to 0.000615116
Heightened Def Con from 0.000615116 to 0.000615117
Heightened Def Con from 0.000615117 to 0.000615118
Heightened Def Con from 0.000615118 to 0.000615119
Heightened Def Con from 0.000615119 to 0.00061512
Heightened Def Con from 0.00061512 to 0.000615121
Heightened Def Con from 0.000615121 to 0.000615122
Heightened Def Con from 0.000615122 to 0.000615123
Heightened Def Con from 0.000615123 to 0.000615124
Heightened Def Con from 0.000615124 to 0.000615125
Heightened Def Con from 0.000615125 to 0.000615126
Heightened Def Con from 0.000615126 to 0.000615127
Heightened Def Con from 0.000615127 to 0.000615128
Heightened Def Con from 0.000615128 to 0.000615129
Heightened Def Con from 0.000615129 to 0.00061513
Heightened Def Con from 0.00061513 to 0.000615131
Heightened Def Con from 0.000615131 to 0.000615132
Heightened Def Con from 0.000615132 to 0.000615133
Heightened Def Con from 0.000615133 to 0.000615134
Heightened Def Con from 0.000615134 to 0.000615135
Heightened Def Con from 0.000615135 to 0.000615136
Heightened Def Con from 0.000615136 to 0.000615137
Heightened Def Con from 0.000615137 to 0.000615138
Heightened Def Con from 0.000615138 to 0.000615139
Heightened Def Con from 0.000615139 to 0.00061514
Heightened Def Con from 0.00061514 to 0.000615141
Heightened Def Con from 0.000615141 to 0.000615142
Heightened Def Con from 0.000615142 to 0.000615143
Heightened Def Con from 0.000615143 to 0.000615144
Heightened Def Con from 0.000615144 to 0.000615145
Heightened Def Con from 0.000615145 to 0.000615146
Heightened Def Con from 0.000615146 to 0.000615147
Heightened Def Con from 0.000615147 to 0.000615148
Heightened Def Con from 0.000615148 to 0.000615149
Heightened Def Con from 0.000615149 to 0.00061515
Heightened Def Con from 0.00061515 to 0.000615151
Heightened Def Con from 0.000615151 to 0.000615152
Heightened Def Con from 0.000615152 to 0.000615153
Heightened Def Con from 0.000615153 to 0.000615154
Heightened Def Con from 0.000615154 to 0.000615155
Heightened Def Con from 0.000615155 to 0.000615156
Heightened Def Con from 0.000615156 to 0.000615157
Heightened Def Con from 0.000615157 to 0.000615158
Heightened Def Con from 0.000615158 to 0.000615159
Heightened Def Con from 0.000615159 to 0.00061516
Heightened Def Con from 0.00061516 to 0.000615161
Heightened Def Con from 0.000615161 to 0.000615162
Heightened Def Con from 0.000615162 to 0.000615163
Heightened Def Con from 0.000615163 to 0.000615164
Heightened Def Con from 0.000615164 to 0.000615165
Heightened Def Con from 0.000615165 to 0.000615166
Heightened Def Con from 0.000615166 to 0.000615167
Heightened Def Con from 0.000615167 to 0.000615168
Heightened Def Con from 0.000615168 to 0.000615169
Heightened Def Con from 0.000615169 to 0.00061517
Heightened Def Con from 0.00061517 to 0.000615171
Heightened Def Con from 0.000615171 to 0.000615172
Heightened Def Con from 0.000615172 to 0.000615173
Heightened Def Con from 0.000615173 to 0.000615174
Heightened Def Con from 0.000615174 to 0.000615175
Heightened Def Con from 0.000615175 to 0.000615176
Heightened Def Con from 0.000615176 to 0.000615177
Heightened Def Con from 0.000615177 to 0.000615178
Heightened Def Con from 0.000615178 to 0.000615179
Heightened Def Con from 0.000615179 to 0.00061518
Heightened Def Con from 0.00061518 to 0.000615181
Heightened Def Con from 0.000615181 to 0.000615182
Heightened Def Con from 0.000615182 to 0.000615183
Heightened Def Con from 0.000615183 to 0.000615184
Heightened Def Con from 0.000615184 to 0.000615185
Heightened Def Con from 0.000615185 to 0.000615186
Heightened Def Con from 0.000615186 to 0.000615187
Heightened Def Con from 0.000615187 to 0.000615188
Heightened Def Con from 0.000615188 to 0.000615189
Heightened Def Con from 0.000615189 to 0.00061519
Heightened Def Con from 0.00061519 to 0.000615191
Heightened Def Con from 0.000615191 to 0.000615192
Heightened Def Con from 0.000615192 to 0.000615193
Heightened Def Con from 0.000615193 to 0.000615194
Heightened Def Con from 0.000615194 to 0.000615195
Heightened Def Con from 0.000615195 to 0.000615196
Heightened Def Con from 0.000615196 to 0.000615197
Heightened Def Con from 0.000615197 to 0.000615198
Heightened Def Con from 0.000615198 to 0.000615199
Heightened Def Con from 0.000615199 to 0.0006152
Heightened Def Con from 0.0006152 to 0.000615201
Heightened Def Con from 0.000615201 to 0.000615202
Heightened Def Con from 0.000615202 to 0.000615203
Heightened Def Con from 0.000615203 to 0.000615204
Heightened Def Con from 0.000615204 to 0.000615205
Heightened Def Con from 0.000615205 to 0.000615206
Heightened Def Con from 0.000615206 to 0.000615207
Heightened Def Con from 0.000615207 to 0.000615208
Heightened Def Con from 0.000615208 to 0.000615209
Heightened Def Con from 0.000615209 to 0.00061521
Heightened Def Con from 0.00061521 to 0.000615211
Heightened Def Con from 0.000615211 to 0.000615212
Heightened Def Con from 0.000615212 to 0.000615213
Heightened Def Con from 0.000615213 to 0.000615214
Heightened Def Con from 0.000615214 to 0.000615215
Heightened Def Con from 0.000615215 to 0.000615216
Heightened Def Con from 0.000615216 to 0.000615217
Heightened Def Con from 0.000615217 to 0.000615218
Heightened Def Con from 0.000615218 to 0.000615219
Heightened Def Con from 0.000615219 to 0.00061522
Heightened Def Con from 0.00061522 to 0.000615221
Heightened Def Con from 0.000615221 to 0.000615222
Heightened Def Con from 0.000615222 to 0.000615223
Heightened Def Con from 0.000615223 to 0.000615224
Heightened Def Con from 0.000615224 to 0.000615225
Heightened Def Con from 0.000615225 to 0.000615226
Heightened Def Con from 0.000615226 to 0.000615227
Heightened Def Con from 0.000615227 to 0.000615228
Heightened Def Con from 0.000615228 to 0.000615229
Heightened Def Con from 0.000615229 to 0.00061523
Heightened Def Con from 0.00061523 to 0.000615231
Heightened Def Con from 0.000615231 to 0.000615232
Heightened Def Con from 0.000615232 to 0.000615233
Heightened Def Con from 0.000615233 to 0.000615234
Heightened Def Con from 0.000615234 to 0.000615235
Heightened Def Con from 0.000615235 to 0.000615236
Heightened Def Con from 0.000615236 to 0.000615237
Heightened Def Con from 0.000615237 to 0.000615238
Heightened Def Con from 0.000615238 to 0.000615239
Heightened Def Con from 0.000615239 to 0.00061524
Heightened Def Con from 0.00061524 to 0.000615241
Heightened Def Con from 0.000615241 to 0.000615242
Heightened Def Con from 0.000615242 to 0.000615243
Heightened Def Con from 0.000615243 to 0.000615244
Heightened Def Con from 0.000615244 to 0.000615245
Heightened Def Con from 0.000615245 to 0.000615246
Heightened Def Con from 0.000615246 to 0.000615247
Heightened Def Con from 0.000615247 to 0.000615248
Heightened Def Con from 0.000615248 to 0.000615249
Heightened Def Con from 0.000615249 to 0.00061525
Heightened Def Con from 0.00061525 to 0.000615251
Heightened Def Con from 0.000615251 to 0.000615252
Heightened Def Con from 0.000615252 to 0.000615253
Heightened Def Con from 0.000615253 to 0.000615254
Heightened Def Con from 0.000615254 to 0.000615255
Heightened Def Con from 0.000615255 to 0.000615256
Heightened Def Con from 0.000615256 to 0.000615257
Heightened Def Con from 0.000615257 to 0.000615258
Heightened Def Con from 0.000615258 to 0.000615259
Heightened Def Con from 0.000615259 to 0.00061526
Heightened Def Con from 0.00061526 to 0.000615261
Heightened Def Con from 0.000615261 to 0.000615262
Heightened Def Con from 0.000615262 to 0.000615263
Heightened Def Con from 0.000615263 to 0.000615264
Heightened Def Con from 0.000615264 to 0.000615265
Heightened Def Con from 0.000615265 to 0.000615266
Heightened Def Con from 0.000615266 to 0.000615267
Heightened Def Con from 0.000615267 to 0.000615268
Heightened Def Con from 0.000615268 to 0.000615269
Heightened Def Con from 0.000615269 to 0.00061527
Heightened Def Con from 0.00061527 to 0.000615271
Heightened Def Con from 0.000615271 to 0.000615272
Heightened Def Con from 0.000615272 to 0.000615273
Heightened Def Con from 0.000615273 to 0.000615274
Heightened Def Con from 0.000615274 to 0.000615275
Heightened Def Con from 0.000615275 to 0.000615276
Heightened Def Con from 0.000615276 to 0.000615277
Heightened Def Con from 0.000615277 to 0.000615278
Heightened Def Con from 0.000615278 to 0.000615279
Heightened Def Con from 0.000615279 to 0.00061528
Heightened Def Con from 0.00061528 to 0.000615281
Heightened Def Con from 0.000615281 to 0.000615282
Heightened Def Con from 0.000615282 to 0.000615283
Heightened Def Con from 0.000615283 to 0.000615284
Heightened Def Con from 0.000615284 to 0.000615285
Heightened Def Con from 0.000615285 to 0.000615286
Heightened Def Con from 0.000615286 to 0.000615287
Heightened Def Con from 0.000615287 to 0.000615288
Heightened Def Con from 0.000615288 to 0.000615289
Heightened Def Con from 0.000615289 to 0.00061529
Heightened Def Con from 0.00061529 to 0.000615291
Heightened Def Con from 0.000615291 to 0.000615292
Heightened Def Con from 0.000615292 to 0.000615293
Heightened Def Con from 0.000615293 to 0.000615294
Heightened Def Con from 0.000615294 to 0.000615295
Heightened Def Con from 0.000615295 to 0.000615296
Heightened Def Con from 0.000615296 to 0.000615297
Heightened Def Con from 0.000615297 to 0.000615298
Heightened Def Con from 0.000615298 to 0.000615299
Heightened Def Con from 0.000615299 to 0.0006153
Heightened Def Con from 0.0006153 to 0.000615301
Heightened Def Con from 0.000615301 to 0.000615302
Heightened Def Con from 0.000615302 to 0.000615303
Heightened Def Con from 0.000615303 to 0.000615304
Heightened Def Con from 0.000615304 to 0.000615305
Heightened Def Con from 0.000615305 to 0.000615306
Heightened Def Con from 0.000615306 to 0.000615307
Heightened Def Con from 0.000615307 to 0.000615308
Heightened Def Con from 0.000615308 to 0.000615309
Heightened Def Con from 0.000615309 to 0.00061531
Heightened Def Con from 0.00061531 to 0.000615311
Heightened Def Con from 0.000615311 to 0.000615312
Heightened Def Con from 0.000615312 to 0.000615313
Heightened Def Con from 0.000615313 to 0.000615314
Heightened Def Con from 0.000615314 to 0.000615315
Heightened Def Con from 0.000615315 to 0.000615316
Heightened Def Con from 0.000615316 to 0.000615317
Heightened Def Con from 0.000615317 to 0.000615318
Heightened Def Con from 0.000615318 to 0.000615319
Heightened Def Con from 0.000615319 to 0.00061532
Heightened Def Con from 0.00061532 to 0.000615321
Heightened Def Con from 0.000615321 to 0.000615322
Heightened Def Con from 0.000615322 to 0.000615323
Heightened Def Con from 0.000615323 to 0.000615324
Heightened Def Con from 0.000615324 to 0.000615325
Heightened Def Con from 0.000615325 to 0.000615326
Heightened Def Con from 0.000615326 to 0.000615327
Heightened Def Con from 0.000615327 to 0.000615328
Heightened Def Con from 0.000615328 to 0.000615329
Heightened Def Con from 0.000615329 to 0.00061533
Heightened Def Con from 0.00061533 to 0.000615331
Heightened Def Con from 0.000615331 to 0.000615332
Heightened Def Con from 0.000615332 to 0.000615333
Heightened Def Con from 0.000615333 to 0.000615334
Heightened Def Con from 0.000615334 to 0.000615335
Heightened Def Con from 0.000615335 to 0.000615336
Heightened Def Con from 0.000615336 to 0.000615337
Heightened Def Con from 0.000615337 to 0.000615338
Heightened Def Con from 0.000615338 to 0.000615339
Heightened Def Con from 0.000615339 to 0.00061534
Heightened Def Con from 0.00061534 to 0.000615341
Heightened Def Con from 0.000615341 to 0.000615342
Heightened Def Con from 0.000615342 to 0.000615343
Heightened Def Con from 0.000615343 to 0.000615344
Heightened Def Con from 0.000615344 to 0.000615345
Heightened Def Con from 0.000615345 to 0.000615346
Heightened Def Con from 0.000615346 to 0.000615347
Heightened Def Con from 0.000615347 to 0.000615348
Heightened Def Con from 0.000615348 to 0.000615349
Heightened Def Con from 0.000615349 to 0.00061535
Heightened Def Con from 0.00061535 to 0.000615351
Heightened Def Con from 0.000615351 to 0.000615352
Heightened Def Con from 0.000615352 to 0.000615353
Heightened Def Con from 0.000615353 to 0.000615354
Heightened Def Con from 0.000615354 to 0.000615355
Heightened Def Con from 0.000615355 to 0.000615356
Heightened Def Con from 0.000615356 to 0.000615357
Heightened Def Con from 0.000615357 to 0.000615358
Heightened Def Con from 0.000615358 to 0.000615359
Heightened Def Con from 0.000615359 to 0.00061536
Heightened Def Con from 0.00061536 to 0.000615361
Heightened Def Con from 0.000615361 to 0.000615362
Heightened Def Con from 0.000615362 to 0.000615363
Heightened Def Con from 0.000615363 to 0.000615364
Heightened Def Con from 0.000615364 to 0.000615365
Heightened Def Con from 0.000615365 to 0.000615366
Heightened Def Con from 0.000615366 to 0.000615367
Heightened Def Con from 0.000615367 to 0.000615368
Heightened Def Con from 0.000615368 to 0.000615369
Heightened Def Con from 0.000615369 to 0.00061537
Heightened Def Con from 0.00061537 to 0.000615371
Heightened Def Con from 0.000615371 to 0.000615372
Heightened Def Con from 0.000615372 to 0.000615373
Heightened Def Con from 0.000615373 to 0.000615374
Heightened Def Con from 0.000615374 to 0.000615375
Heightened Def Con from 0.000615375 to 0.000615376
Heightened Def Con from 0.000615376 to 0.000615377
Heightened Def Con from 0.000615377 to 0.000615378
Heightened Def Con from 0.000615378 to 0.000615379
Heightened Def Con from 0.000615379 to 0.00061538
Heightened Def Con from 0.00061538 to 0.000615381
Heightened Def Con from 0.000615381 to 0.000615382
Heightened Def Con from 0.000615382 to 0.000615383
Heightened Def Con from 0.000615383 to 0.000615384
Heightened Def Con from 0.000615384 to 0.000615385
Heightened Def Con from 0.000615385 to 0.000615386
Heightened Def Con from 0.000615386 to 0.000615387
Heightened Def Con from 0.000615387 to 0.000615388
Heightened Def Con from 0.000615388 to 0.000615389
Heightened Def Con from 0.000615389 to 0.00061539
Heightened Def Con from 0.00061539 to 0.000615391
Heightened Def Con from 0.000615391 to 0.000615392
Heightened Def Con from 0.000615392 to 0.000615393
Heightened Def Con from 0.000615393 to 0.000615394
Heightened Def Con from 0.000615394 to 0.000615395
Heightened Def Con from 0.000615395 to 0.000615396
Heightened Def Con from 0.000615396 to 0.000615397
Heightened Def Con from 0.000615397 to 0.000615398
Heightened Def Con from 0.000615398 to 0.000615399
Heightened Def Con from 0.000615399 to 0.0006154
Heightened Def Con from 0.0006154 to 0.000615401
Heightened Def Con from 0.000615401 to 0.000615402
Heightened Def Con from 0.000615402 to 0.000615403
Heightened Def Con from 0.000615403 to 0.000615404
Heightened Def Con from 0.000615404 to 0.000615405
Heightened Def Con from 0.000615405 to 0.000615406
Heightened Def Con from 0.000615406 to 0.000615407
Heightened Def Con from 0.000615407 to 0.000615408
Heightened Def Con from 0.000615408 to 0.000615409
Heightened Def Con from 0.000615409 to 0.00061541
Heightened Def Con from 0.00061541 to 0.000615411
Heightened Def Con from 0.000615411 to 0.000615412
Heightened Def Con from 0.000615412 to 0.000615413
Heightened Def Con from 0.000615413 to 0.000615414
Heightened Def Con from 0.000615414 to 0.000615415
Heightened Def Con from 0.000615415 to 0.000615416
Heightened Def Con from 0.000615416 to 0.000615417
Heightened Def Con from 0.000615417 to 0.000615418
Heightened Def Con from 0.000615418 to 0.000615419
Heightened Def Con from 0.000615419 to 0.00061542
Heightened Def Con from 0.00061542 to 0.000615421
Heightened Def Con from 0.000615421 to 0.000615422
Heightened Def Con from 0.000615422 to 0.000615423
Heightened Def Con from 0.000615423 to 0.000615424
Heightened Def Con from 0.000615424 to 0.000615425
Heightened Def Con from 0.000615425 to 0.000615426
Heightened Def Con from 0.000615426 to 0.000615427
Heightened Def Con from 0.000615427 to 0.000615428
Heightened Def Con from 0.000615428 to 0.000615429
Heightened Def Con from 0.000615429 to 0.00061543
Heightened Def Con from 0.00061543 to 0.000615431
Heightened Def Con from 0.000615431 to 0.000615432
Heightened Def Con from 0.000615432 to 0.000615433
Heightened Def Con from 0.000615433 to 0.000615434
Heightened Def Con from 0.000615434 to 0.000615435
Heightened Def Con from 0.000615435 to 0.000615436
Heightened Def Con from 0.000615436 to 0.000615437
Heightened Def Con from 0.000615437 to 0.000615438
Heightened Def Con from 0.000615438 to 0.000615439
Heightened Def Con from 0.000615439 to 0.00061544
Heightened Def Con from 0.00061544 to 0.000615441
Heightened Def Con from 0.000615441 to 0.000615442
Heightened Def Con from 0.000615442 to 0.000615443
Heightened Def Con from 0.000615443 to 0.000615444
Heightened Def Con from 0.000615444 to 0.000615445
Heightened Def Con from 0.000615445 to 0.000615446
Heightened Def Con from 0.000615446 to 0.000615447
Heightened Def Con from 0.000615447 to 0.000615448
Heightened Def Con from 0.000615448 to 0.000615449
Heightened Def Con from 0.000615449 to 0.00061545
Heightened Def Con from 0.00061545 to 0.000615451
Heightened Def Con from 0.000615451 to 0.000615452
Heightened Def Con from 0.000615452 to 0.000615453
Heightened Def Con from 0.000615453 to 0.000615454
Heightened Def Con from 0.000615454 to 0.000615455
Heightened Def Con from 0.000615455 to 0.000615456
Heightened Def Con from 0.000615456 to 0.000615457
Heightened Def Con from 0.000615457 to 0.000615458
Heightened Def Con from 0.000615458 to 0.000615459
Heightened Def Con from 0.000615459 to 0.00061546
Heightened Def Con from 0.00061546 to 0.000615461
Heightened Def Con from 0.000615461 to 0.000615462
Heightened Def Con from 0.000615462 to 0.000615463
Heightened Def Con from 0.000615463 to 0.000615464
Heightened Def Con from 0.000615464 to 0.000615465
Heightened Def Con from 0.000615465 to 0.000615466
Heightened Def Con from 0.000615466 to 0.000615467
Heightened Def Con from 0.000615467 to 0.000615468
Heightened Def Con from 0.000615468 to 0.000615469
Heightened Def Con from 0.000615469 to 0.00061547
Heightened Def Con from 0.00061547 to 0.000615471
Heightened Def Con from 0.000615471 to 0.000615472
Heightened Def Con from 0.000615472 to 0.000615473
Heightened Def Con from 0.000615473 to 0.000615474
Heightened Def Con from 0.000615474 to 0.000615475
Heightened Def Con from 0.000615475 to 0.000615476
Heightened Def Con from 0.000615476 to 0.000615477
Heightened Def Con from 0.000615477 to 0.000615478
Heightened Def Con from 0.000615478 to 0.000615479
Heightened Def Con from 0.000615479 to 0.00061548
Heightened Def Con from 0.00061548 to 0.000615481
Heightened Def Con from 0.000615481 to 0.000615482
Heightened Def Con from 0.000615482 to 0.000615483
Heightened Def Con from 0.000615483 to 0.000615484
Heightened Def Con from 0.000615484 to 0.000615485
Heightened Def Con from 0.000615485 to 0.000615486
Heightened Def Con from 0.000615486 to 0.000615487
Heightened Def Con from 0.000615487 to 0.000615488
Heightened Def Con from 0.000615488 to 0.000615489
Heightened Def Con from 0.000615489 to 0.00061549
Heightened Def Con from 0.00061549 to 0.000615491
Heightened Def Con from 0.000615491 to 0.000615492
Heightened Def Con from 0.000615492 to 0.000615493
Heightened Def Con from 0.000615493 to 0.000615494
Heightened Def Con from 0.000615494 to 0.000615495
Heightened Def Con from 0.000615495 to 0.000615496
Heightened Def Con from 0.000615496 to 0.000615497
Heightened Def Con from 0.000615497 to 0.000615498
Heightened Def Con from 0.000615498 to 0.000615499
Heightened Def Con from 0.000615499 to 0.0006155
Heightened Def Con from 0.0006155 to 0.000615501
Heightened Def Con from 0.000615501 to 0.000615502
Heightened Def Con from 0.000615502 to 0.000615503
Heightened Def Con from 0.000615503 to 0.000615504
Heightened Def Con from 0.000615504 to 0.000615505
Heightened Def Con from 0.000615505 to 0.000615506
Heightened Def Con from 0.000615506 to 0.000615507
Heightened Def Con from 0.000615507 to 0.000615508
Heightened Def Con from 0.000615508 to 0.000615509
Heightened Def Con from 0.000615509 to 0.00061551
Heightened Def Con from 0.00061551 to 0.000615511
Heightened Def Con from 0.000615511 to 0.000615512
Heightened Def Con from 0.000615512 to 0.000615513
Heightened Def Con from 0.000615513 to 0.000615514
Heightened Def Con from 0.000615514 to 0.000615515
Heightened Def Con from 0.000615515 to 0.000615516
Heightened Def Con from 0.000615516 to 0.000615517
Heightened Def Con from 0.000615517 to 0.000615518
Heightened Def Con from 0.000615518 to 0.000615519
Heightened Def Con from 0.000615519 to 0.00061552
Heightened Def Con from 0.00061552 to 0.000615521
Heightened Def Con from 0.000615521 to 0.000615522
Heightened Def Con from 0.000615522 to 0.000615523
Heightened Def Con from 0.000615523 to 0.000615524
Heightened Def Con from 0.000615524 to 0.000615525
Heightened Def Con from 0.000615525 to 0.000615526
Heightened Def Con from 0.000615526 to 0.000615527
Heightened Def Con from 0.000615527 to 0.000615528
Heightened Def Con from 0.000615528 to 0.000615529
Heightened Def Con from 0.000615529 to 0.00061553
Heightened Def Con from 0.00061553 to 0.000615531
Heightened Def Con from 0.000615531 to 0.000615532
Heightened Def Con from 0.000615532 to 0.000615533
Heightened Def Con from 0.000615533 to 0.000615534
Heightened Def Con from 0.000615534 to 0.000615535
Heightened Def Con from 0.000615535 to 0.000615536
Heightened Def Con from 0.000615536 to 0.000615537
Heightened Def Con from 0.000615537 to 0.000615538
Heightened Def Con from 0.000615538 to 0.000615539
Heightened Def Con from 0.000615539 to 0.00061554
Heightened Def Con from 0.00061554 to 0.000615541
Heightened Def Con from 0.000615541 to 0.000615542
Heightened Def Con from 0.000615542 to 0.000615543
Heightened Def Con from 0.000615543 to 0.000615544
Heightened Def Con from 0.000615544 to 0.000615545
Heightened Def Con from 0.000615545 to 0.000615546
Heightened Def Con from 0.000615546 to 0.000615547
Heightened Def Con from 0.000615547 to 0.000615548
Heightened Def Con from 0.000615548 to 0.000615549
Heightened Def Con from 0.000615549 to 0.00061555
Heightened Def Con from 0.00061555 to 0.000615551
Heightened Def Con from 0.000615551 to 0.000615552
Heightened Def Con from 0.000615552 to 0.000615553
Heightened Def Con from 0.000615553 to 0.000615554
Heightened Def Con from 0.000615554 to 0.000615555
Heightened Def Con from 0.000615555 to 0.000615556
Heightened Def Con from 0.000615556 to 0.000615557
Heightened Def Con from 0.000615557 to 0.000615558
Heightened Def Con from 0.000615558 to 0.000615559
Heightened Def Con from 0.000615559 to 0.00061556
Heightened Def Con from 0.00061556 to 0.000615561
Heightened Def Con from 0.000615561 to 0.000615562
Heightened Def Con from 0.000615562 to 0.000615563
Heightened Def Con from 0.000615563 to 0.000615564
Heightened Def Con from 0.000615564 to 0.000615565
Heightened Def Con from 0.000615565 to 0.000615566
Heightened Def Con from 0.000615566 to 0.000615567
Heightened Def Con from 0.000615567 to 0.000615568
Heightened Def Con from 0.000615568 to 0.000615569
Heightened Def Con from 0.000615569 to 0.00061557
Heightened Def Con from 0.00061557 to 0.000615571
Heightened Def Con from 0.000615571 to 0.000615572
Heightened Def Con from 0.000615572 to 0.000615573
Heightened Def Con from 0.000615573 to 0.000615574
Heightened Def Con from 0.000615574 to 0.000615575
Heightened Def Con from 0.000615575 to 0.000615576
Heightened Def Con from 0.000615576 to 0.000615577
Heightened Def Con from 0.000615577 to 0.000615578
Heightened Def Con from 0.000615578 to 0.000615579
Heightened Def Con from 0.000615579 to 0.00061558
Heightened Def Con from 0.00061558 to 0.000615581
Heightened Def Con from 0.000615581 to 0.000615582
Heightened Def Con from 0.000615582 to 0.000615583
Heightened Def Con from 0.000615583 to 0.000615584
Heightened Def Con from 0.000615584 to 0.000615585
Heightened Def Con from 0.000615585 to 0.000615586
Heightened Def Con from 0.000615586 to 0.000615587
Heightened Def Con from 0.000615587 to 0.000615588
Heightened Def Con from 0.000615588 to 0.000615589
Heightened Def Con from 0.000615589 to 0.00061559
Heightened Def Con from 0.00061559 to 0.000615591
Heightened Def Con from 0.000615591 to 0.000615592
Heightened Def Con from 0.000615592 to 0.000615593
Heightened Def Con from 0.000615593 to 0.000615594
Heightened Def Con from 0.000615594 to 0.000615595
Heightened Def Con from 0.000615595 to 0.000615596
Heightened Def Con from 0.000615596 to 0.000615597
Heightened Def Con from 0.000615597 to 0.000615598
Heightened Def Con from 0.000615598 to 0.000615599
Heightened Def Con from 0.000615599 to 0.0006156
Heightened Def Con from 0.0006156 to 0.000615601
Heightened Def Con from 0.000615601 to 0.000615602
Heightened Def Con from 0.000615602 to 0.000615603
Heightened Def Con from 0.000615603 to 0.000615604
Heightened Def Con from 0.000615604 to 0.000615605
Heightened Def Con from 0.000615605 to 0.000615606
Heightened Def Con from 0.000615606 to 0.000615607
Heightened Def Con from 0.000615607 to 0.000615608
Heightened Def Con from 0.000615608 to 0.000615609
Heightened Def Con from 0.000615609 to 0.00061561
Heightened Def Con from 0.00061561 to 0.000615611
Heightened Def Con from 0.000615611 to 0.000615612
Heightened Def Con from 0.000615612 to 0.000615613
Heightened Def Con from 0.000615613 to 0.000615614
Heightened Def Con from 0.000615614 to 0.000615615
Heightened Def Con from 0.000615615 to 0.000615616
Heightened Def Con from 0.000615616 to 0.000615617
Heightened Def Con from 0.000615617 to 0.000615618
Heightened Def Con from 0.000615618 to 0.000615619
Heightened Def Con from 0.000615619 to 0.00061562
Heightened Def Con from 0.00061562 to 0.000615621
Heightened Def Con from 0.000615621 to 0.000615622
Heightened Def Con from 0.000615622 to 0.000615623
Heightened Def Con from 0.000615623 to 0.000615624
Heightened Def Con from 0.000615624 to 0.000615625
Heightened Def Con from 0.000615625 to 0.000615626
Heightened Def Con from 0.000615626 to 0.000615627
Heightened Def Con from 0.000615627 to 0.000615628
Heightened Def Con from 0.000615628 to 0.000615629
Heightened Def Con from 0.000615629 to 0.00061563
Heightened Def Con from 0.00061563 to 0.000615631
Heightened Def Con from 0.000615631 to 0.000615632
Heightened Def Con from 0.000615632 to 0.000615633
Heightened Def Con from 0.000615633 to 0.000615634
Heightened Def Con from 0.000615634 to 0.000615635
Heightened Def Con from 0.000615635 to 0.000615636
Heightened Def Con from 0.000615636 to 0.000615637
Heightened Def Con from 0.000615637 to 0.000615638
Heightened Def Con from 0.000615638 to 0.000615639
Heightened Def Con from 0.000615639 to 0.00061564
Heightened Def Con from 0.00061564 to 0.000615641
Heightened Def Con from 0.000615641 to 0.000615642
Heightened Def Con from 0.000615642 to 0.000615643
Heightened Def Con from 0.000615643 to 0.000615644
Heightened Def Con from 0.000615644 to 0.000615645
Heightened Def Con from 0.000615645 to 0.000615646
Heightened Def Con from 0.000615646 to 0.000615647
Heightened Def Con from 0.000615647 to 0.000615648
Heightened Def Con from 0.000615648 to 0.000615649
Heightened Def Con from 0.000615649 to 0.00061565
Heightened Def Con from 0.00061565 to 0.000615651
Heightened Def Con from 0.000615651 to 0.000615652
Heightened Def Con from 0.000615652 to 0.000615653
Heightened Def Con from 0.000615653 to 0.000615654
Heightened Def Con from 0.000615654 to 0.000615655
Heightened Def Con from 0.000615655 to 0.000615656
Heightened Def Con from 0.000615656 to 0.000615657
Heightened Def Con from 0.000615657 to 0.000615658
Heightened Def Con from 0.000615658 to 0.000615659
Heightened Def Con from 0.000615659 to 0.00061566
Heightened Def Con from 0.00061566 to 0.000615661
Heightened Def Con from 0.000615661 to 0.000615662
Heightened Def Con from 0.000615662 to 0.000615663
Heightened Def Con from 0.000615663 to 0.000615664
Heightened Def Con from 0.000615664 to 0.000615665
Heightened Def Con from 0.000615665 to 0.000615666
Heightened Def Con from 0.000615666 to 0.000615667
Heightened Def Con from 0.000615667 to 0.000615668
Heightened Def Con from 0.000615668 to 0.000615669
Heightened Def Con from 0.000615669 to 0.00061567
Heightened Def Con from 0.00061567 to 0.000615671
Heightened Def Con from 0.000615671 to 0.000615672
Heightened Def Con from 0.000615672 to 0.000615673
Heightened Def Con from 0.000615673 to 0.000615674
Heightened Def Con from 0.000615674 to 0.000615675
Heightened Def Con from 0.000615675 to 0.000615676
Heightened Def Con from 0.000615676 to 0.000615677
Heightened Def Con from 0.000615677 to 0.000615678
Heightened Def Con from 0.000615678 to 0.000615679
Heightened Def Con from 0.000615679 to 0.00061568
Heightened Def Con from 0.00061568 to 0.000615681
Heightened Def Con from 0.000615681 to 0.000615682
Heightened Def Con from 0.000615682 to 0.000615683
Heightened Def Con from 0.000615683 to 0.000615684
Heightened Def Con from 0.000615684 to 0.000615685
Heightened Def Con from 0.000615685 to 0.000615686
Heightened Def Con from 0.000615686 to 0.000615687
Heightened Def Con from 0.000615687 to 0.000615688
Heightened Def Con from 0.000615688 to 0.000615689
Heightened Def Con from 0.000615689 to 0.00061569
Heightened Def Con from 0.00061569 to 0.000615691
Heightened Def Con from 0.000615691 to 0.000615692
Heightened Def Con from 0.000615692 to 0.000615693
Heightened Def Con from 0.000615693 to 0.000615694
Heightened Def Con from 0.000615694 to 0.000615695
Heightened Def Con from 0.000615695 to 0.000615696
Heightened Def Con from 0.000615696 to 0.000615697
Heightened Def Con from 0.000615697 to 0.000615698
Heightened Def Con from 0.000615698 to 0.000615699
Heightened Def Con from 0.000615699 to 0.0006157
Heightened Def Con from 0.0006157 to 0.000615701
Heightened Def Con from 0.000615701 to 0.000615702
Heightened Def Con from 0.000615702 to 0.000615703
Heightened Def Con from 0.000615703 to 0.000615704
Heightened Def Con from 0.000615704 to 0.000615705
Heightened Def Con from 0.000615705 to 0.000615706
Heightened Def Con from 0.000615706 to 0.000615707
Heightened Def Con from 0.000615707 to 0.000615708
Heightened Def Con from 0.000615708 to 0.000615709
Heightened Def Con from 0.000615709 to 0.00061571
Heightened Def Con from 0.00061571 to 0.000615711
Heightened Def Con from 0.000615711 to 0.000615712
Heightened Def Con from 0.000615712 to 0.000615713
Heightened Def Con from 0.000615713 to 0.000615714
Heightened Def Con from 0.000615714 to 0.000615715
Heightened Def Con from 0.000615715 to 0.000615716
Heightened Def Con from 0.000615716 to 0.000615717
Heightened Def Con from 0.000615717 to 0.000615718
Heightened Def Con from 0.000615718 to 0.000615719
Heightened Def Con from 0.000615719 to 0.00061572
Heightened Def Con from 0.00061572 to 0.000615721
Heightened Def Con from 0.000615721 to 0.000615722
Heightened Def Con from 0.000615722 to 0.000615723
Heightened Def Con from 0.000615723 to 0.000615724
Heightened Def Con from 0.000615724 to 0.000615725
Heightened Def Con from 0.000615725 to 0.000615726
Heightened Def Con from 0.000615726 to 0.000615727
Heightened Def Con from 0.000615727 to 0.000615728
Heightened Def Con from 0.000615728 to 0.000615729
Heightened Def Con from 0.000615729 to 0.00061573
Heightened Def Con from 0.00061573 to 0.000615731
Heightened Def Con from 0.000615731 to 0.000615732
Heightened Def Con from 0.000615732 to 0.000615733
Heightened Def Con from 0.000615733 to 0.000615734
Heightened Def Con from 0.000615734 to 0.000615735
Heightened Def Con from 0.000615735 to 0.000615736
Heightened Def Con from 0.000615736 to 0.000615737
Heightened Def Con from 0.000615737 to 0.000615738
Heightened Def Con from 0.000615738 to 0.000615739
Heightened Def Con from 0.000615739 to 0.00061574
Heightened Def Con from 0.00061574 to 0.000615741
Heightened Def Con from 0.000615741 to 0.000615742
Heightened Def Con from 0.000615742 to 0.000615743
Heightened Def Con from 0.000615743 to 0.000615744
Heightened Def Con from 0.000615744 to 0.000615745
Heightened Def Con from 0.000615745 to 0.000615746
Heightened Def Con from 0.000615746 to 0.000615747
Heightened Def Con from 0.000615747 to 0.000615748
Heightened Def Con from 0.000615748 to 0.000615749
Heightened Def Con from 0.000615749 to 0.00061575
Heightened Def Con from 0.00061575 to 0.000615751
Heightened Def Con from 0.000615751 to 0.000615752
Heightened Def Con from 0.000615752 to 0.000615753
Heightened Def Con from 0.000615753 to 0.000615754
Heightened Def Con from 0.000615754 to 0.000615755
Heightened Def Con from 0.000615755 to 0.000615756
Heightened Def Con from 0.000615756 to 0.000615757
Heightened Def Con from 0.000615757 to 0.000615758
Heightened Def Con from 0.000615758 to 0.000615759
Heightened Def Con from 0.000615759 to 0.00061576
Heightened Def Con from 0.00061576 to 0.000615761
Heightened Def Con from 0.000615761 to 0.000615762
Heightened Def Con from 0.000615762 to 0.000615763
Heightened Def Con from 0.000615763 to 0.000615764
Heightened Def Con from 0.000615764 to 0.000615765
Heightened Def Con from 0.000615765 to 0.000615766
Heightened Def Con from 0.000615766 to 0.000615767
Heightened Def Con from 0.000615767 to 0.000615768
Heightened Def Con from 0.000615768 to 0.000615769
Heightened Def Con from 0.000615769 to 0.00061577
Heightened Def Con from 0.00061577 to 0.000615771
Heightened Def Con from 0.000615771 to 0.000615772
Heightened Def Con from 0.000615772 to 0.000615773
Heightened Def Con from 0.000615773 to 0.000615774
Heightened Def Con from 0.000615774 to 0.000615775
Heightened Def Con from 0.000615775 to 0.000615776
Heightened Def Con from 0.000615776 to 0.000615777
Heightened Def Con from 0.000615777 to 0.000615778
Heightened Def Con from 0.000615778 to 0.000615779
Heightened Def Con from 0.000615779 to 0.00061578
Heightened Def Con from 0.00061578 to 0.000615781
Heightened Def Con from 0.000615781 to 0.000615782
Heightened Def Con from 0.000615782 to 0.000615783
Heightened Def Con from 0.000615783 to 0.000615784
Heightened Def Con from 0.000615784 to 0.000615785
Heightened Def Con from 0.000615785 to 0.000615786
Heightened Def Con from 0.000615786 to 0.000615787
Heightened Def Con from 0.000615787 to 0.000615788
Heightened Def Con from 0.000615788 to 0.000615789
Heightened Def Con from 0.000615789 to 0.00061579
Heightened Def Con from 0.00061579 to 0.000615791
Heightened Def Con from 0.000615791 to 0.000615792
Heightened Def Con from 0.000615792 to 0.000615793
Heightened Def Con from 0.000615793 to 0.000615794
Heightened Def Con from 0.000615794 to 0.000615795
Heightened Def Con from 0.000615795 to 0.000615796
Heightened Def Con from 0.000615796 to 0.000615797
Heightened Def Con from 0.000615797 to 0.000615798
Heightened Def Con from 0.000615798 to 0.000615799
Heightened Def Con from 0.000615799 to 0.0006158
Heightened Def Con from 0.0006158 to 0.000615801
Heightened Def Con from 0.000615801 to 0.000615802
Heightened Def Con from 0.000615802 to 0.000615803
Heightened Def Con from 0.000615803 to 0.000615804
Heightened Def Con from 0.000615804 to 0.000615805
Heightened Def Con from 0.000615805 to 0.000615806
Heightened Def Con from 0.000615806 to 0.000615807
Heightened Def Con from 0.000615807 to 0.000615808
Heightened Def Con from 0.000615808 to 0.000615809
Heightened Def Con from 0.000615809 to 0.00061581
Heightened Def Con from 0.00061581 to 0.000615811
Heightened Def Con from 0.000615811 to 0.000615812
Heightened Def Con from 0.000615812 to 0.000615813
Heightened Def Con from 0.000615813 to 0.000615814
Heightened Def Con from 0.000615814 to 0.000615815
Heightened Def Con from 0.000615815 to 0.000615816
Heightened Def Con from 0.000615816 to 0.000615817
Heightened Def Con from 0.000615817 to 0.000615818
Heightened Def Con from 0.000615818 to 0.000615819
Heightened Def Con from 0.000615819 to 0.00061582
Heightened Def Con from 0.00061582 to 0.000615821
Heightened Def Con from 0.000615821 to 0.000615822
Heightened Def Con from 0.000615822 to 0.000615823
Heightened Def Con from 0.000615823 to 0.000615824
Heightened Def Con from 0.000615824 to 0.000615825
Heightened Def Con from 0.000615825 to 0.000615826
Heightened Def Con from 0.000615826 to 0.000615827
Heightened Def Con from 0.000615827 to 0.000615828
Heightened Def Con from 0.000615828 to 0.000615829
Heightened Def Con from 0.000615829 to 0.00061583
Heightened Def Con from 0.00061583 to 0.000615831
Heightened Def Con from 0.000615831 to 0.000615832
Heightened Def Con from 0.000615832 to 0.000615833
Heightened Def Con from 0.000615833 to 0.000615834
Heightened Def Con from 0.000615834 to 0.000615835
Heightened Def Con from 0.000615835 to 0.000615836
Heightened Def Con from 0.000615836 to 0.000615837
Heightened Def Con from 0.000615837 to 0.000615838
Heightened Def Con from 0.000615838 to 0.000615839
Heightened Def Con from 0.000615839 to 0.00061584
Heightened Def Con from 0.00061584 to 0.000615841
Heightened Def Con from 0.000615841 to 0.000615842
Heightened Def Con from 0.000615842 to 0.000615843
Heightened Def Con from 0.000615843 to 0.000615844
Heightened Def Con from 0.000615844 to 0.000615845
Heightened Def Con from 0.000615845 to 0.000615846
Heightened Def Con from 0.000615846 to 0.000615847
Heightened Def Con from 0.000615847 to 0.000615848
Heightened Def Con from 0.000615848 to 0.000615849
Heightened Def Con from 0.000615849 to 0.00061585
Heightened Def Con from 0.00061585 to 0.000615851
Heightened Def Con from 0.000615851 to 0.000615852
Heightened Def Con from 0.000615852 to 0.000615853
Heightened Def Con from 0.000615853 to 0.000615854
Heightened Def Con from 0.000615854 to 0.000615855
Heightened Def Con from 0.000615855 to 0.000615856
Heightened Def Con from 0.000615856 to 0.000615857
Heightened Def Con from 0.000615857 to 0.000615858
Heightened Def Con from 0.000615858 to 0.000615859
Heightened Def Con from 0.000615859 to 0.00061586
Heightened Def Con from 0.00061586 to 0.000615861
Heightened Def Con from 0.000615861 to 0.000615862
Heightened Def Con from 0.000615862 to 0.000615863
Heightened Def Con from 0.000615863 to 0.000615864
Heightened Def Con from 0.000615864 to 0.000615865
Heightened Def Con from 0.000615865 to 0.000615866
Heightened Def Con from 0.000615866 to 0.000615867
Heightened Def Con from 0.000615867 to 0.000615868
Heightened Def Con from 0.000615868 to 0.000615869
Heightened Def Con from 0.000615869 to 0.00061587
Heightened Def Con from 0.00061587 to 0.000615871
Heightened Def Con from 0.000615871 to 0.000615872
Heightened Def Con from 0.000615872 to 0.000615873
Heightened Def Con from 0.000615873 to 0.000615874
Heightened Def Con from 0.000615874 to 0.000615875
Heightened Def Con from 0.000615875 to 0.000615876
Heightened Def Con from 0.000615876 to 0.000615877
Heightened Def Con from 0.000615877 to 0.000615878
Heightened Def Con from 0.000615878 to 0.000615879
Heightened Def Con from 0.000615879 to 0.00061588
Heightened Def Con from 0.00061588 to 0.000615881
Heightened Def Con from 0.000615881 to 0.000615882
Heightened Def Con from 0.000615882 to 0.000615883
Heightened Def Con from 0.000615883 to 0.000615884
Heightened Def Con from 0.000615884 to 0.000615885
Heightened Def Con from 0.000615885 to 0.000615886
Heightened Def Con from 0.000615886 to 0.000615887
Heightened Def Con from 0.000615887 to 0.000615888
Heightened Def Con from 0.000615888 to 0.000615889
Heightened Def Con from 0.000615889 to 0.00061589
Heightened Def Con from 0.00061589 to 0.000615891
Heightened Def Con from 0.000615891 to 0.000615892
Heightened Def Con from 0.000615892 to 0.000615893
Heightened Def Con from 0.000615893 to 0.000615894
Heightened Def Con from 0.000615894 to 0.000615895
Heightened Def Con from 0.000615895 to 0.000615896
Heightened Def Con from 0.000615896 to 0.000615897
Heightened Def Con from 0.000615897 to 0.000615898
Heightened Def Con from 0.000615898 to 0.000615899
Heightened Def Con from 0.000615899 to 0.0006159
Heightened Def Con from 0.0006159 to 0.000615901
Heightened Def Con from 0.000615901 to 0.000615902
Heightened Def Con from 0.000615902 to 0.000615903
Heightened Def Con from 0.000615903 to 0.000615904
Heightened Def Con from 0.000615904 to 0.000615905
Heightened Def Con from 0.000615905 to 0.000615906
Heightened Def Con from 0.000615906 to 0.000615907
Heightened Def Con from 0.000615907 to 0.000615908
Heightened Def Con from 0.000615908 to 0.000615909
Heightened Def Con from 0.000615909 to 0.00061591
Heightened Def Con from 0.00061591 to 0.000615911
Heightened Def Con from 0.000615911 to 0.000615912
Heightened Def Con from 0.000615912 to 0.000615913
Heightened Def Con from 0.000615913 to 0.000615914
Heightened Def Con from 0.000615914 to 0.000615915
Heightened Def Con from 0.000615915 to 0.000615916
Heightened Def Con from 0.000615916 to 0.000615917
Heightened Def Con from 0.000615917 to 0.000615918
Heightened Def Con from 0.000615918 to 0.000615919
Heightened Def Con from 0.000615919 to 0.00061592
Heightened Def Con from 0.00061592 to 0.000615921
Heightened Def Con from 0.000615921 to 0.000615922
Heightened Def Con from 0.000615922 to 0.000615923
Heightened Def Con from 0.000615923 to 0.000615924
Heightened Def Con from 0.000615924 to 0.000615925
Heightened Def Con from 0.000615925 to 0.000615926
Heightened Def Con from 0.000615926 to 0.000615927
Heightened Def Con from 0.000615927 to 0.000615928
Heightened Def Con from 0.000615928 to 0.000615929
Heightened Def Con from 0.000615929 to 0.00061593
Heightened Def Con from 0.00061593 to 0.000615931
Heightened Def Con from 0.000615931 to 0.000615932
Heightened Def Con from 0.000615932 to 0.000615933
Heightened Def Con from 0.000615933 to 0.000615934
Heightened Def Con from 0.000615934 to 0.000615935
Heightened Def Con from 0.000615935 to 0.000615936
Heightened Def Con from 0.000615936 to 0.000615937
Heightened Def Con from 0.000615937 to 0.000615938
Heightened Def Con from 0.000615938 to 0.000615939
Heightened Def Con from 0.000615939 to 0.00061594
Heightened Def Con from 0.00061594 to 0.000615941
Heightened Def Con from 0.000615941 to 0.000615942
Heightened Def Con from 0.000615942 to 0.000615943
Heightened Def Con from 0.000615943 to 0.000615944
Heightened Def Con from 0.000615944 to 0.000615945
Heightened Def Con from 0.000615945 to 0.000615946
Heightened Def Con from 0.000615946 to 0.000615947
Heightened Def Con from 0.000615947 to 0.000615948
Heightened Def Con from 0.000615948 to 0.000615949
Heightened Def Con from 0.000615949 to 0.00061595
Heightened Def Con from 0.00061595 to 0.000615951
Heightened Def Con from 0.000615951 to 0.000615952
Heightened Def Con from 0.000615952 to 0.000615953
Heightened Def Con from 0.000615953 to 0.000615954
Heightened Def Con from 0.000615954 to 0.000615955
Heightened Def Con from 0.000615955 to 0.000615956
Heightened Def Con from 0.000615956 to 0.000615957
Heightened Def Con from 0.000615957 to 0.000615958
Heightened Def Con from 0.000615958 to 0.000615959
Heightened Def Con from 0.000615959 to 0.00061596
Heightened Def Con from 0.00061596 to 0.000615961
Heightened Def Con from 0.000615961 to 0.000615962
Heightened Def Con from 0.000615962 to 0.000615963
Heightened Def Con from 0.000615963 to 0.000615964
Heightened Def Con from 0.000615964 to 0.000615965
Heightened Def Con from 0.000615965 to 0.000615966
Heightened Def Con from 0.000615966 to 0.000615967
Heightened Def Con from 0.000615967 to 0.000615968
Heightened Def Con from 0.000615968 to 0.000615969
Heightened Def Con from 0.000615969 to 0.00061597
Heightened Def Con from 0.00061597 to 0.000615971
Heightened Def Con from 0.000615971 to 0.000615972
Heightened Def Con from 0.000615972 to 0.000615973
Heightened Def Con from 0.000615973 to 0.000615974
Heightened Def Con from 0.000615974 to 0.000615975
Heightened Def Con from 0.000615975 to 0.000615976
Heightened Def Con from 0.000615976 to 0.000615977
Heightened Def Con from 0.000615977 to 0.000615978
Heightened Def Con from 0.000615978 to 0.000615979
Heightened Def Con from 0.000615979 to 0.00061598
Heightened Def Con from 0.00061598 to 0.000615981
Heightened Def Con from 0.000615981 to 0.000615982
Heightened Def Con from 0.000615982 to 0.000615983
Heightened Def Con from 0.000615983 to 0.000615984
Heightened Def Con from 0.000615984 to 0.000615985
Heightened Def Con from 0.000615985 to 0.000615986
Heightened Def Con from 0.000615986 to 0.000615987
Heightened Def Con from 0.000615987 to 0.000615988
Heightened Def Con from 0.000615988 to 0.000615989
Heightened Def Con from 0.000615989 to 0.00061599
Heightened Def Con from 0.00061599 to 0.000615991
Heightened Def Con from 0.000615991 to 0.000615992
Heightened Def Con from 0.000615992 to 0.000615993
Heightened Def Con from 0.000615993 to 0.000615994
Heightened Def Con from 0.000615994 to 0.000615995
Heightened Def Con from 0.000615995 to 0.000615996
Heightened Def Con from 0.000615996 to 0.000615997
Heightened Def Con from 0.000615997 to 0.000615998
Heightened Def Con from 0.000615998 to 0.000615999
Heightened Def Con from 0.000615999 to 0.000616
Heightened Def Con from 0.000616 to 0.000616001
Heightened Def Con from 0.000616001 to 0.000616002
Heightened Def Con from 0.000616002 to 0.000616003
Heightened Def Con from 0.000616003 to 0.000616004
Heightened Def Con from 0.000616004 to 0.000616005
Heightened Def Con from 0.000616005 to 0.000616006
Heightened Def Con from 0.000616006 to 0.000616007
Heightened Def Con from 0.000616007 to 0.000616008
Heightened Def Con from 0.000616008 to 0.000616009
Heightened Def Con from 0.000616009 to 0.00061601
Heightened Def Con from 0.00061601 to 0.000616011
Heightened Def Con from 0.000616011 to 0.000616012
Heightened Def Con from 0.000616012 to 0.000616013
Heightened Def Con from 0.000616013 to 0.000616014
Heightened Def Con from 0.000616014 to 0.000616015
Heightened Def Con from 0.000616015 to 0.000616016
Heightened Def Con from 0.000616016 to 0.000616017
Heightened Def Con from 0.000616017 to 0.000616018
Heightened Def Con from 0.000616018 to 0.000616019
Heightened Def Con from 0.000616019 to 0.00061602
Heightened Def Con from 0.00061602 to 0.000616021
Heightened Def Con from 0.000616021 to 0.000616022
Heightened Def Con from 0.000616022 to 0.000616023
Heightened Def Con from 0.000616023 to 0.000616024
Heightened Def Con from 0.000616024 to 0.000616025
Heightened Def Con from 0.000616025 to 0.000616026
Heightened Def Con from 0.000616026 to 0.000616027
Heightened Def Con from 0.000616027 to 0.000616028
Heightened Def Con from 0.000616028 to 0.000616029
Heightened Def Con from 0.000616029 to 0.00061603
Heightened Def Con from 0.00061603 to 0.000616031
Heightened Def Con from 0.000616031 to 0.000616032
Heightened Def Con from 0.000616032 to 0.000616033
Heightened Def Con from 0.000616033 to 0.000616034
Heightened Def Con from 0.000616034 to 0.000616035
Heightened Def Con from 0.000616035 to 0.000616036
Heightened Def Con from 0.000616036 to 0.000616037
Heightened Def Con from 0.000616037 to 0.000616038
Heightened Def Con from 0.000616038 to 0.000616039
Heightened Def Con from 0.000616039 to 0.00061604
Heightened Def Con from 0.00061604 to 0.000616041
Heightened Def Con from 0.000616041 to 0.000616042
Heightened Def Con from 0.000616042 to 0.000616043
Heightened Def Con from 0.000616043 to 0.000616044
Heightened Def Con from 0.000616044 to 0.000616045
Heightened Def Con from 0.000616045 to 0.000616046
Heightened Def Con from 0.000616046 to 0.000616047
Heightened Def Con from 0.000616047 to 0.000616048
Heightened Def Con from 0.000616048 to 0.000616049
Heightened Def Con from 0.000616049 to 0.00061605
Heightened Def Con from 0.00061605 to 0.000616051
Heightened Def Con from 0.000616051 to 0.000616052
Heightened Def Con from 0.000616052 to 0.000616053
Heightened Def Con from 0.000616053 to 0.000616054
Heightened Def Con from 0.000616054 to 0.000616055
Heightened Def Con from 0.000616055 to 0.000616056
Heightened Def Con from 0.000616056 to 0.000616057
Heightened Def Con from 0.000616057 to 0.000616058
Heightened Def Con from 0.000616058 to 0.000616059
Heightened Def Con from 0.000616059 to 0.00061606
Heightened Def Con from 0.00061606 to 0.000616061
Heightened Def Con from 0.000616061 to 0.000616062
Heightened Def Con from 0.000616062 to 0.000616063
Heightened Def Con from 0.000616063 to 0.000616064
Heightened Def Con from 0.000616064 to 0.000616065
Heightened Def Con from 0.000616065 to 0.000616066
Heightened Def Con from 0.000616066 to 0.000616067
Heightened Def Con from 0.000616067 to 0.000616068
Heightened Def Con from 0.000616068 to 0.000616069
Heightened Def Con from 0.000616069 to 0.00061607
Heightened Def Con from 0.00061607 to 0.000616071
Heightened Def Con from 0.000616071 to 0.000616072
Heightened Def Con from 0.000616072 to 0.000616073
Heightened Def Con from 0.000616073 to 0.000616074
Heightened Def Con from 0.000616074 to 0.000616075
Heightened Def Con from 0.000616075 to 0.000616076
Heightened Def Con from 0.000616076 to 0.000616077
Heightened Def Con from 0.000616077 to 0.000616078
Heightened Def Con from 0.000616078 to 0.000616079
Heightened Def Con from 0.000616079 to 0.00061608
Heightened Def Con from 0.00061608 to 0.000616081
Heightened Def Con from 0.000616081 to 0.000616082
Heightened Def Con from 0.000616082 to 0.000616083
Heightened Def Con from 0.000616083 to 0.000616084
Heightened Def Con from 0.000616084 to 0.000616085
Heightened Def Con from 0.000616085 to 0.000616086
Heightened Def Con from 0.000616086 to 0.000616087
Heightened Def Con from 0.000616087 to 0.000616088
Heightened Def Con from 0.000616088 to 0.000616089
Heightened Def Con from 0.000616089 to 0.00061609
Heightened Def Con from 0.00061609 to 0.000616091
Heightened Def Con from 0.000616091 to 0.000616092
Heightened Def Con from 0.000616092 to 0.000616093
Heightened Def Con from 0.000616093 to 0.000616094
Heightened Def Con from 0.000616094 to 0.000616095
Heightened Def Con from 0.000616095 to 0.000616096
Heightened Def Con from 0.000616096 to 0.000616097
Heightened Def Con from 0.000616097 to 0.000616098
Heightened Def Con from 0.000616098 to 0.000616099
Heightened Def Con from 0.000616099 to 0.0006161
Heightened Def Con from 0.0006161 to 0.000616101
Heightened Def Con from 0.000616101 to 0.000616102
Heightened Def Con from 0.000616102 to 0.000616103
Heightened Def Con from 0.000616103 to 0.000616104
Heightened Def Con from 0.000616104 to 0.000616105
Heightened Def Con from 0.000616105 to 0.000616106
Heightened Def Con from 0.000616106 to 0.000616107
Heightened Def Con from 0.000616107 to 0.000616108
Heightened Def Con from 0.000616108 to 0.000616109
Heightened Def Con from 0.000616109 to 0.00061611
Heightened Def Con from 0.00061611 to 0.000616111
Heightened Def Con from 0.000616111 to 0.000616112
Heightened Def Con from 0.000616112 to 0.000616113
Heightened Def Con from 0.000616113 to 0.000616114
Heightened Def Con from 0.000616114 to 0.000616115
Heightened Def Con from 0.000616115 to 0.000616116
Heightened Def Con from 0.000616116 to 0.000616117
Heightened Def Con from 0.000616117 to 0.000616118
Heightened Def Con from 0.000616118 to 0.000616119
Heightened Def Con from 0.000616119 to 0.00061612
Heightened Def Con from 0.00061612 to 0.000616121
Heightened Def Con from 0.000616121 to 0.000616122
Heightened Def Con from 0.000616122 to 0.000616123
Heightened Def Con from 0.000616123 to 0.000616124
Heightened Def Con from 0.000616124 to 0.000616125
Heightened Def Con from 0.000616125 to 0.000616126
Heightened Def Con from 0.000616126 to 0.000616127
Heightened Def Con from 0.000616127 to 0.000616128
Heightened Def Con from 0.000616128 to 0.000616129
Heightened Def Con from 0.000616129 to 0.00061613
Heightened Def Con from 0.00061613 to 0.000616131
Heightened Def Con from 0.000616131 to 0.000616132
Heightened Def Con from 0.000616132 to 0.000616133
Heightened Def Con from 0.000616133 to 0.000616134
Heightened Def Con from 0.000616134 to 0.000616135
Heightened Def Con from 0.000616135 to 0.000616136
Heightened Def Con from 0.000616136 to 0.000616137
Heightened Def Con from 0.000616137 to 0.000616138
Heightened Def Con from 0.000616138 to 0.000616139
Heightened Def Con from 0.000616139 to 0.00061614
Heightened Def Con from 0.00061614 to 0.000616141
Heightened Def Con from 0.000616141 to 0.000616142
Heightened Def Con from 0.000616142 to 0.000616143
Heightened Def Con from 0.000616143 to 0.000616144
Heightened Def Con from 0.000616144 to 0.000616145
Heightened Def Con from 0.000616145 to 0.000616146
Heightened Def Con from 0.000616146 to 0.000616147
Heightened Def Con from 0.000616147 to 0.000616148
Heightened Def Con from 0.000616148 to 0.000616149
Heightened Def Con from 0.000616149 to 0.00061615
Heightened Def Con from 0.00061615 to 0.000616151
Heightened Def Con from 0.000616151 to 0.000616152
Heightened Def Con from 0.000616152 to 0.000616153
Heightened Def Con from 0.000616153 to 0.000616154
Heightened Def Con from 0.000616154 to 0.000616155
Heightened Def Con from 0.000616155 to 0.000616156
Heightened Def Con from 0.000616156 to 0.000616157
Heightened Def Con from 0.000616157 to 0.000616158
Heightened Def Con from 0.000616158 to 0.000616159
Heightened Def Con from 0.000616159 to 0.00061616
Heightened Def Con from 0.00061616 to 0.000616161
Heightened Def Con from 0.000616161 to 0.000616162
Heightened Def Con from 0.000616162 to 0.000616163
Heightened Def Con from 0.000616163 to 0.000616164
Heightened Def Con from 0.000616164 to 0.000616165
Heightened Def Con from 0.000616165 to 0.000616166
Heightened Def Con from 0.000616166 to 0.000616167
Heightened Def Con from 0.000616167 to 0.000616168
Heightened Def Con from 0.000616168 to 0.000616169
Heightened Def Con from 0.000616169 to 0.00061617
Heightened Def Con from 0.00061617 to 0.000616171
Heightened Def Con from 0.000616171 to 0.000616172
Heightened Def Con from 0.000616172 to 0.000616173
Heightened Def Con from 0.000616173 to 0.000616174
Heightened Def Con from 0.000616174 to 0.000616175
Heightened Def Con from 0.000616175 to 0.000616176
Heightened Def Con from 0.000616176 to 0.000616177
Heightened Def Con from 0.000616177 to 0.000616178
Heightened Def Con from 0.000616178 to 0.000616179
Heightened Def Con from 0.000616179 to 0.00061618
Heightened Def Con from 0.00061618 to 0.000616181
Heightened Def Con from 0.000616181 to 0.000616182
Heightened Def Con from 0.000616182 to 0.000616183
Heightened Def Con from 0.000616183 to 0.000616184
Heightened Def Con from 0.000616184 to 0.000616185
Heightened Def Con from 0.000616185 to 0.000616186
Heightened Def Con from 0.000616186 to 0.000616187
Heightened Def Con from 0.000616187 to 0.000616188
Heightened Def Con from 0.000616188 to 0.000616189
Heightened Def Con from 0.000616189 to 0.00061619
Heightened Def Con from 0.00061619 to 0.000616191
Heightened Def Con from 0.000616191 to 0.000616192
Heightened Def Con from 0.000616192 to 0.000616193
Heightened Def Con from 0.000616193 to 0.000616194
Heightened Def Con from 0.000616194 to 0.000616195
Heightened Def Con from 0.000616195 to 0.000616196
Heightened Def Con from 0.000616196 to 0.000616197
Heightened Def Con from 0.000616197 to 0.000616198
Heightened Def Con from 0.000616198 to 0.000616199
Heightened Def Con from 0.000616199 to 0.0006162
Heightened Def Con from 0.0006162 to 0.000616201
Heightened Def Con from 0.000616201 to 0.000616202
Heightened Def Con from 0.000616202 to 0.000616203
Heightened Def Con from 0.000616203 to 0.000616204
Heightened Def Con from 0.000616204 to 0.000616205
Heightened Def Con from 0.000616205 to 0.000616206
Heightened Def Con from 0.000616206 to 0.000616207
Heightened Def Con from 0.000616207 to 0.000616208
Heightened Def Con from 0.000616208 to 0.000616209
Heightened Def Con from 0.000616209 to 0.00061621
Heightened Def Con from 0.00061621 to 0.000616211
Heightened Def Con from 0.000616211 to 0.000616212
Heightened Def Con from 0.000616212 to 0.000616213
Heightened Def Con from 0.000616213 to 0.000616214
Heightened Def Con from 0.000616214 to 0.000616215
Heightened Def Con from 0.000616215 to 0.000616216
Heightened Def Con from 0.000616216 to 0.000616217
Heightened Def Con from 0.000616217 to 0.000616218
Heightened Def Con from 0.000616218 to 0.000616219
Heightened Def Con from 0.000616219 to 0.00061622
Heightened Def Con from 0.00061622 to 0.000616221
Heightened Def Con from 0.000616221 to 0.000616222
Heightened Def Con from 0.000616222 to 0.000616223
Heightened Def Con from 0.000616223 to 0.000616224
Heightened Def Con from 0.000616224 to 0.000616225
Heightened Def Con from 0.000616225 to 0.000616226
Heightened Def Con from 0.000616226 to 0.000616227
Heightened Def Con from 0.000616227 to 0.000616228
Heightened Def Con from 0.000616228 to 0.000616229
Heightened Def Con from 0.000616229 to 0.00061623
Heightened Def Con from 0.00061623 to 0.000616231
Heightened Def Con from 0.000616231 to 0.000616232
Heightened Def Con from 0.000616232 to 0.000616233
Heightened Def Con from 0.000616233 to 0.000616234
Heightened Def Con from 0.000616234 to 0.000616235
Heightened Def Con from 0.000616235 to 0.000616236
Heightened Def Con from 0.000616236 to 0.000616237
Heightened Def Con from 0.000616237 to 0.000616238
Heightened Def Con from 0.000616238 to 0.000616239
Heightened Def Con from 0.000616239 to 0.00061624
Heightened Def Con from 0.00061624 to 0.000616241
Heightened Def Con from 0.000616241 to 0.000616242
Heightened Def Con from 0.000616242 to 0.000616243
Heightened Def Con from 0.000616243 to 0.000616244
Heightened Def Con from 0.000616244 to 0.000616245
Heightened Def Con from 0.000616245 to 0.000616246
Heightened Def Con from 0.000616246 to 0.000616247
Heightened Def Con from 0.000616247 to 0.000616248
Heightened Def Con from 0.000616248 to 0.000616249
Heightened Def Con from 0.000616249 to 0.00061625
Heightened Def Con from 0.00061625 to 0.000616251
Heightened Def Con from 0.000616251 to 0.000616252
Heightened Def Con from 0.000616252 to 0.000616253
Heightened Def Con from 0.000616253 to 0.000616254
[...]
Heightened Def Con from 0.000641713 to 0.000641714
Heightened Def Con from 0.000641714 to 0.000641715
Heightened Def Con from 0.000641715 to 0.000641716
Heightened Def Con from 0.000641716 to 0.000641717
Heightened Def Con from 0.000641717 to 0.000641718
Heightened Def Con from 0.000641718 to 0.000641719
Heightened Def Con from 0.000641719 to 0.00064172
Heightened Def Con from 0.00064172 to 0.000641721
Heightened Def Con from 0.000641721 to 0.000641722
Heightened Def Con from 0.000641722 to 0.000641723
Heightened Def Con from 0.000641723 to 0.000641724
Heightened Def Con from 0.000641724 to 0.000641725
Heightened Def Con from 0.000641725 to 0.000641726
Heightened Def Con from 0.000641726 to 0.000641727
Heightened Def Con from 0.000641727 to 0.000641728
Heightened Def Con from 0.000641728 to 0.000641729
Heightened Def Con from 0.000641729 to 0.00064173
Heightened Def Con from 0.00064173 to 0.000641731
Heightened Def Con from 0.000641731 to 0.000641732
Heightened Def Con from 0.000641732 to 0.000641733
Heightened Def Con from 0.000641733 to 0.000641734
Heightened Def Con from 0.000641734 to 0.000641735
Heightened Def Con from 0.000641735 to 0.000641736
Heightened Def Con from 0.000641736 to 0.000641737
Heightened Def Con from 0.000641737 to 0.000641738
Heightened Def Con from 0.000641738 to 0.000641739
Heightened Def Con from 0.000641739 to 0.00064174
Heightened Def Con from 0.00064174 to 0.000641741
Heightened Def Con from 0.000641741 to 0.000641742
Heightened Def Con from 0.000641742 to 0.000641743
Heightened Def Con from 0.000641743 to 0.000641744
Heightened Def Con from 0.000641744 to 0.000641745
Heightened Def Con from 0.000641745 to 0.000641746
Heightened Def Con from 0.000641746 to 0.000641747
Heightened Def Con from 0.000641747 to 0.000641748
Heightened Def Con from 0.000641748 to 0.000641749
Heightened Def Con from 0.000641749 to 0.00064175
Heightened Def Con from 0.00064175 to 0.000641751
Heightened Def Con from 0.000641751 to 0.000641752
Heightened Def Con from 0.000641752 to 0.000641753
Heightened Def Con from 0.000641753 to 0.000641754
Heightened Def Con from 0.000641754 to 0.000641755
Heightened Def Con from 0.000641755 to 0.000641756
Heightened Def Con from 0.000641756 to 0.000641757
Heightened Def Con from 0.000641757 to 0.000641758
Heightened Def Con from 0.000641758 to 0.000641759
Heightened Def Con from 0.000641759 to 0.00064176
Heightened Def Con from 0.00064176 to 0.000641761
Heightened Def Con from 0.000641761 to 0.000641762
Heightened Def Con from 0.000641762 to 0.000641763
Heightened Def Con from 0.000641763 to 0.000641764
Heightened Def Con from 0.000641764 to 0.000641765
Heightened Def Con from 0.000641765 to 0.000641766
Heightened Def Con from 0.000641766 to 0.000641767
Heightened Def Con from 0.000641767 to 0.000641768
Heightened Def Con from 0.000641768 to 0.000641769
Heightened Def Con from 0.000641769 to 0.00064177
Heightened Def Con from 0.00064177 to 0.000641771
Heightened Def Con from 0.000641771 to 0.000641772
Heightened Def Con from 0.000641772 to 0.000641773
Heightened Def Con from 0.000641773 to 0.000641774
Heightened Def Con from 0.000641774 to 0.000641775
Heightened Def Con from 0.000641775 to 0.000641776
Heightened Def Con from 0.000641776 to 0.000641777
Heightened Def Con from 0.000641777 to 0.000641778
Heightened Def Con from 0.000641778 to 0.000641779
Heightened Def Con from 0.000641779 to 0.00064178
Heightened Def Con from 0.00064178 to 0.000641781
Heightened Def Con from 0.000641781 to 0.000641782
Heightened Def Con from 0.000641782 to 0.000641783
Heightened Def Con from 0.000641783 to 0.000641784
Heightened Def Con from 0.000641784 to 0.000641785
Heightened Def Con from 0.000641785 to 0.000641786
Heightened Def Con from 0.000641786 to 0.000641787
Heightened Def Con from 0.000641787 to 0.000641788
Heightened Def Con from 0.000641788 to 0.000641789
Heightened Def Con from 0.000641789 to 0.00064179
Heightened Def Con from 0.00064179 to 0.000641791
Heightened Def Con from 0.000641791 to 0.000641792
Heightened Def Con from 0.000641792 to 0.000641793
Heightened Def Con from 0.000641793 to 0.000641794
Heightened Def Con from 0.000641794 to 0.000641795
Heightened Def Con from 0.000641795 to 0.000641796
Heightened Def Con from 0.000641796 to 0.000641797
Heightened Def Con from 0.000641797 to 0.000641798
Heightened Def Con from 0.000641798 to 0.000641799
Heightened Def Con from 0.000641799 to 0.0006418
Heightened Def Con from 0.0006418 to 0.000641801
Heightened Def Con from 0.000641801 to 0.000641802
Heightened Def Con from 0.000641802 to 0.000641803
Heightened Def Con from 0.000641803 to 0.000641804
Heightened Def Con from 0.000641804 to 0.000641805
Heightened Def Con from 0.000641805 to 0.000641806
Heightened Def Con from 0.000641806 to 0.000641807
Heightened Def Con from 0.000641807 to 0.000641808
Heightened Def Con from 0.000641808 to 0.000641809
Heightened Def Con from 0.000641809 to 0.00064181
Heightened Def Con from 0.00064181 to 0.000641811
Heightened Def Con from 0.000641811 to 0.000641812
Heightened Def Con from 0.000641812 to 0.000641813
Heightened Def Con from 0.000641813 to 0.000641814
Heightened Def Con from 0.000641814 to 0.000641815
Heightened Def Con from 0.000641815 to 0.000641816
Heightened Def Con from 0.000641816 to 0.000641817
Heightened Def Con from 0.000641817 to 0.000641818
Heightened Def Con from 0.000641818 to 0.000641819
Heightened Def Con from 0.000641819 to 0.00064182
Heightened Def Con from 0.00064182 to 0.000641821
Heightened Def Con from 0.000641821 to 0.000641822
Heightened Def Con from 0.000641822 to 0.000641823
Heightened Def Con from 0.000641823 to 0.000641824
Heightened Def Con from 0.000641824 to 0.000641825
Heightened Def Con from 0.000641825 to 0.000641826
Heightened Def Con from 0.000641826 to 0.000641827
Heightened Def Con from 0.000641827 to 0.000641828
Heightened Def Con from 0.000641828 to 0.000641829
Heightened Def Con from 0.000641829 to 0.00064183
Heightened Def Con from 0.00064183 to 0.000641831
Heightened Def Con from 0.000641831 to 0.000641832
Heightened Def Con from 0.000641832 to 0.000641833
Heightened Def Con from 0.000641833 to 0.000641834
Heightened Def Con from 0.000641834 to 0.000641835
Heightened Def Con from 0.000641835 to 0.000641836
Heightened Def Con from 0.000641836 to 0.000641837
Heightened Def Con from 0.000641837 to 0.000641838
Heightened Def Con from 0.000641838 to 0.000641839
Heightened Def Con from 0.000641839 to 0.00064184
Heightened Def Con from 0.00064184 to 0.000641841
Heightened Def Con from 0.000641841 to 0.000641842
Heightened Def Con from 0.000641842 to 0.000641843
Heightened Def Con from 0.000641843 to 0.000641844
Heightened Def Con from 0.000641844 to 0.000641845
Heightened Def Con from 0.000641845 to 0.000641846
Heightened Def Con from 0.000641846 to 0.000641847
Heightened Def Con from 0.000641847 to 0.000641848
Heightened Def Con from 0.000641848 to 0.000641849
Heightened Def Con from 0.000641849 to 0.00064185
Heightened Def Con from 0.00064185 to 0.000641851
Heightened Def Con from 0.000641851 to 0.000641852
Heightened Def Con from 0.000641852 to 0.000641853
Heightened Def Con from 0.000641853 to 0.000641854
Heightened Def Con from 0.000641854 to 0.000641855
Heightened Def Con from 0.000641855 to 0.000641856
Heightened Def Con from 0.000641856 to 0.000641857
Heightened Def Con from 0.000641857 to 0.000641858
Heightened Def Con from 0.000641858 to 0.000641859
Heightened Def Con from 0.000641859 to 0.00064186
Heightened Def Con from 0.00064186 to 0.000641861
Heightened Def Con from 0.000641861 to 0.000641862
Heightened Def Con from 0.000641862 to 0.000641863
Heightened Def Con from 0.000641863 to 0.000641864
Heightened Def Con from 0.000641864 to 0.000641865
Heightened Def Con from 0.000641865 to 0.000641866
Heightened Def Con from 0.000641866 to 0.000641867
Heightened Def Con from 0.000641867 to 0.000641868
Heightened Def Con from 0.000641868 to 0.000641869
Heightened Def Con from 0.000641869 to 0.00064187
Heightened Def Con from 0.00064187 to 0.000641871
Heightened Def Con from 0.000641871 to 0.000641872
Heightened Def Con from 0.000641872 to 0.000641873
Heightened Def Con from 0.000641873 to 0.000641874
Heightened Def Con from 0.000641874 to 0.000641875
Heightened Def Con from 0.000641875 to 0.000641876
Heightened Def Con from 0.000641876 to 0.000641877
Heightened Def Con from 0.000641877 to 0.000641878
Heightened Def Con from 0.000641878 to 0.000641879
Heightened Def Con from 0.000641879 to 0.00064188
Heightened Def Con from 0.00064188 to 0.000641881
Heightened Def Con from 0.000641881 to 0.000641882
Heightened Def Con from 0.000641882 to 0.000641883
Heightened Def Con from 0.000641883 to 0.000641884
Heightened Def Con from 0.000641884 to 0.000641885
Heightened Def Con from 0.000641885 to 0.000641886
Heightened Def Con from 0.000641886 to 0.000641887
Heightened Def Con from 0.000641887 to 0.000641888
Heightened Def Con from 0.000641888 to 0.000641889
Heightened Def Con from 0.000641889 to 0.00064189
Heightened Def Con from 0.00064189 to 0.000641891
Heightened Def Con from 0.000641891 to 0.000641892
Heightened Def Con from 0.000641892 to 0.000641893
Heightened Def Con from 0.000641893 to 0.000641894
Heightened Def Con from 0.000641894 to 0.000641895
Heightened Def Con from 0.000641895 to 0.000641896
Heightened Def Con from 0.000641896 to 0.000641897
Heightened Def Con from 0.000641897 to 0.000641898
Heightened Def Con from 0.000641898 to 0.000641899
Heightened Def Con from 0.000641899 to 0.0006419
Heightened Def Con from 0.0006419 to 0.000641901
Heightened Def Con from 0.000641901 to 0.000641902
Heightened Def Con from 0.000641902 to 0.000641903
Heightened Def Con from 0.000641903 to 0.000641904
Heightened Def Con from 0.000641904 to 0.000641905
Heightened Def Con from 0.000641905 to 0.000641906
Heightened Def Con from 0.000641906 to 0.000641907
Heightened Def Con from 0.000641907 to 0.000641908
Heightened Def Con from 0.000641908 to 0.000641909
Heightened Def Con from 0.000641909 to 0.00064191
Heightened Def Con from 0.00064191 to 0.000641911
Heightened Def Con from 0.000641911 to 0.000641912
Heightened Def Con from 0.000641912 to 0.000641913
Heightened Def Con from 0.000641913 to 0.000641914
Heightened Def Con from 0.000641914 to 0.000641915
Heightened Def Con from 0.000641915 to 0.000641916
Heightened Def Con from 0.000641916 to 0.000641917
Heightened Def Con from 0.000641917 to 0.000641918
Heightened Def Con from 0.000641918 to 0.000641919
Heightened Def Con from 0.000641919 to 0.00064192
Heightened Def Con from 0.00064192 to 0.000641921
Heightened Def Con from 0.000641921 to 0.000641922
Heightened Def Con from 0.000641922 to 0.000641923
Heightened Def Con from 0.000641923 to 0.000641924
Heightened Def Con from 0.000641924 to 0.000641925
Heightened Def Con from 0.000641925 to 0.000641926
Heightened Def Con from 0.000641926 to 0.000641927
Heightened Def Con from 0.000641927 to 0.000641928
Heightened Def Con from 0.000641928 to 0.000641929
Heightened Def Con from 0.000641929 to 0.00064193
Heightened Def Con from 0.00064193 to 0.000641931
Heightened Def Con from 0.000641931 to 0.000641932
Heightened Def Con from 0.000641932 to 0.000641933
Heightened Def Con from 0.000641933 to 0.000641934
Heightened Def Con from 0.000641934 to 0.000641935
Heightened Def Con from 0.000641935 to 0.000641936
Heightened Def Con from 0.000641936 to 0.000641937
Heightened Def Con from 0.000641937 to 0.000641938
Heightened Def Con from 0.000641938 to 0.000641939
Heightened Def Con from 0.000641939 to 0.00064194
Heightened Def Con from 0.00064194 to 0.000641941
Heightened Def Con from 0.000641941 to 0.000641942
Heightened Def Con from 0.000641942 to 0.000641943
Heightened Def Con from 0.000641943 to 0.000641944
Heightened Def Con from 0.000641944 to 0.000641945
Heightened Def Con from 0.000641945 to 0.000641946
Heightened Def Con from 0.000641946 to 0.000641947
Heightened Def Con from 0.000641947 to 0.000641948
Heightened Def Con from 0.000641948 to 0.000641949
Heightened Def Con from 0.000641949 to 0.00064195
Heightened Def Con from 0.00064195 to 0.000641951
Heightened Def Con from 0.000641951 to 0.000641952
Heightened Def Con from 0.000641952 to 0.000641953
Heightened Def Con from 0.000641953 to 0.000641954
Heightened Def Con from 0.000641954 to 0.000641955
Heightened Def Con from 0.000641955 to 0.000641956
Heightened Def Con from 0.000641956 to 0.000641957
Heightened Def Con from 0.000641957 to 0.000641958
Heightened Def Con from 0.000641958 to 0.000641959
Heightened Def Con from 0.000641959 to 0.00064196
Heightened Def Con from 0.00064196 to 0.000641961
Heightened Def Con from 0.000641961 to 0.000641962
Heightened Def Con from 0.000641962 to 0.000641963
Heightened Def Con from 0.000641963 to 0.000641964
Heightened Def Con from 0.000641964 to 0.000641965
Heightened Def Con from 0.000641965 to 0.000641966
Heightened Def Con from 0.000641966 to 0.000641967
Heightened Def Con from 0.000641967 to 0.000641968
Heightened Def Con from 0.000641968 to 0.000641969
Heightened Def Con from 0.000641969 to 0.00064197
Heightened Def Con from 0.00064197 to 0.000641971
Heightened Def Con from 0.000641971 to 0.000641972
Heightened Def Con from 0.000641972 to 0.000641973
Heightened Def Con from 0.000641973 to 0.000641974
Heightened Def Con from 0.000641974 to 0.000641975
Heightened Def Con from 0.000641975 to 0.000641976
Heightened Def Con from 0.000641976 to 0.000641977
Heightened Def Con from 0.000641977 to 0.000641978
Heightened Def Con from 0.000641978 to 0.000641979
Heightened Def Con from 0.000641979 to 0.00064198
Heightened Def Con from 0.00064198 to 0.000641981
Heightened Def Con from 0.000641981 to 0.000641982
Heightened Def Con from 0.000641982 to 0.000641983
Heightened Def Con from 0.000641983 to 0.000641984
Heightened Def Con from 0.000641984 to 0.000641985
Heightened Def Con from 0.000641985 to 0.000641986
Heightened Def Con from 0.000641986 to 0.000641987
Heightened Def Con from 0.000641987 to 0.000641988
Heightened Def Con from 0.000641988 to 0.000641989
Heightened Def Con from 0.000641989 to 0.00064199
Heightened Def Con from 0.00064199 to 0.000641991
Heightened Def Con from 0.000641991 to 0.000641992
Heightened Def Con from 0.000641992 to 0.000641993
Heightened Def Con from 0.000641993 to 0.000641994
Heightened Def Con from 0.000641994 to 0.000641995
Heightened Def Con from 0.000641995 to 0.000641996
Heightened Def Con from 0.000641996 to 0.000641997
Heightened Def Con from 0.000641997 to 0.000641998
Heightened Def Con from 0.000641998 to 0.000641999
Heightened Def Con from 0.000641999 to 0.000642
Heightened Def Con from 0.000642 to 0.000642001
Heightened Def Con from 0.000642001 to 0.000642002
Heightened Def Con from 0.000642002 to 0.000642003
Heightened Def Con from 0.000642003 to 0.000642004
Heightened Def Con from 0.000642004 to 0.000642005
Heightened Def Con from 0.000642005 to 0.000642006
Heightened Def Con from 0.000642006 to 0.000642007
Heightened Def Con from 0.000642007 to 0.000642008
Heightened Def Con from 0.000642008 to 0.000642009
Heightened Def Con from 0.000642009 to 0.00064201
Heightened Def Con from 0.00064201 to 0.000642011
Heightened Def Con from 0.000642011 to 0.000642012
Heightened Def Con from 0.000642012 to 0.000642013
Heightened Def Con from 0.000642013 to 0.000642014
Heightened Def Con from 0.000642014 to 0.000642015
Heightened Def Con from 0.000642015 to 0.000642016
Heightened Def Con from 0.000642016 to 0.000642017
Heightened Def Con from 0.000642017 to 0.000642018
Heightened Def Con from 0.000642018 to 0.000642019
Heightened Def Con from 0.000642019 to 0.00064202
Heightened Def Con from 0.00064202 to 0.000642021
Heightened Def Con from 0.000642021 to 0.000642022
Heightened Def Con from 0.000642022 to 0.000642023
Heightened Def Con from 0.000642023 to 0.000642024
Heightened Def Con from 0.000642024 to 0.000642025
Heightened Def Con from 0.000642025 to 0.000642026
Heightened Def Con from 0.000642026 to 0.000642027
Heightened Def Con from 0.000642027 to 0.000642028
Heightened Def Con from 0.000642028 to 0.000642029
Heightened Def Con from 0.000642029 to 0.00064203
Heightened Def Con from 0.00064203 to 0.000642031
Heightened Def Con from 0.000642031 to 0.000642032
Heightened Def Con from 0.000642032 to 0.000642033
Heightened Def Con from 0.000642033 to 0.000642034
Heightened Def Con from 0.000642034 to 0.000642035
Heightened Def Con from 0.000642035 to 0.000642036
Heightened Def Con from 0.000642036 to 0.000642037
Heightened Def Con from 0.000642037 to 0.000642038
Heightened Def Con from 0.000642038 to 0.000642039
Heightened Def Con from 0.000642039 to 0.00064204
Heightened Def Con from 0.00064204 to 0.000642041
Heightened Def Con from 0.000642041 to 0.000642042
Heightened Def Con from 0.000642042 to 0.000642043
Heightened Def Con from 0.000642043 to 0.000642044
Heightened Def Con from 0.000642044 to 0.000642045
Heightened Def Con from 0.000642045 to 0.000642046
Heightened Def Con from 0.000642046 to 0.000642047
Heightened Def Con from 0.000642047 to 0.000642048
Heightened Def Con from 0.000642048 to 0.000642049
Heightened Def Con from 0.000642049 to 0.00064205
Heightened Def Con from 0.00064205 to 0.000642051
Heightened Def Con from 0.000642051 to 0.000642052
Heightened Def Con from 0.000642052 to 0.000642053
Heightened Def Con from 0.000642053 to 0.000642054
Heightened Def Con from 0.000642054 to 0.000642055
Heightened Def Con from 0.000642055 to 0.000642056
Heightened Def Con from 0.000642056 to 0.000642057
Heightened Def Con from 0.000642057 to 0.000642058
Heightened Def Con from 0.000642058 to 0.000642059
Heightened Def Con from 0.000642059 to 0.00064206
Heightened Def Con from 0.00064206 to 0.000642061
Heightened Def Con from 0.000642061 to 0.000642062
Heightened Def Con from 0.000642062 to 0.000642063
Heightened Def Con from 0.000642063 to 0.000642064
Heightened Def Con from 0.000642064 to 0.000642065
Heightened Def Con from 0.000642065 to 0.000642066
Heightened Def Con from 0.000642066 to 0.000642067
Heightened Def Con from 0.000642067 to 0.000642068
Heightened Def Con from 0.000642068 to 0.000642069
Heightened Def Con from 0.000642069 to 0.00064207
Heightened Def Con from 0.00064207 to 0.000642071
Heightened Def Con from 0.000642071 to 0.000642072
Heightened Def Con from 0.000642072 to 0.000642073
Heightened Def Con from 0.000642073 to 0.000642074
Heightened Def Con from 0.000642074 to 0.000642075
Heightened Def Con from 0.000642075 to 0.000642076
Heightened Def Con from 0.000642076 to 0.000642077
Heightened Def Con from 0.000642077 to 0.000642078
Heightened Def Con from 0.000642078 to 0.000642079
Heightened Def Con from 0.000642079 to 0.00064208
Heightened Def Con from 0.00064208 to 0.000642081
Heightened Def Con from 0.000642081 to 0.000642082
Heightened Def Con from 0.000642082 to 0.000642083
Heightened Def Con from 0.000642083 to 0.000642084
Heightened Def Con from 0.000642084 to 0.000642085
Heightened Def Con from 0.000642085 to 0.000642086
Heightened Def Con from 0.000642086 to 0.000642087
Heightened Def Con from 0.000642087 to 0.000642088
Heightened Def Con from 0.000642088 to 0.000642089
Heightened Def Con from 0.000642089 to 0.00064209
Heightened Def Con from 0.00064209 to 0.000642091
Heightened Def Con from 0.000642091 to 0.000642092
Heightened Def Con from 0.000642092 to 0.000642093
Heightened Def Con from 0.000642093 to 0.000642094
Heightened Def Con from 0.000642094 to 0.000642095
Heightened Def Con from 0.000642095 to 0.000642096
Heightened Def Con from 0.000642096 to 0.000642097
Heightened Def Con from 0.000642097 to 0.000642098
Heightened Def Con from 0.000642098 to 0.000642098

Date: Thu Jul 28 10:08:31 2022
Total elapsed time: 41.627 seconds.

tnom = 27
temp = 27
method = modified trap
totiter = 3673746
traniter = 3673448
tranpoints = 356491
accept = 55011
rejected = 328883
matrix size = 45
fillins = 51
solver = Normal
Matrix Compiler1: 4.25 KB object code size  0.8/0.5/[0.3]
Matrix Compiler2: 4.06 KB object code size  0.5/0.6/[0.4]

